REMARK Flexibility Score: inf
REMARK Active torsions [ 7 ] -> [ 7 ]
ROOT
ATOM      1  C1  LIG L   1      17.822  44.641  12.322  1.00  0.00     0.038 A
ATOM      2  C2  LIG L   1      18.950  44.502  11.393  1.00  0.00    -0.029 A
ATOM      3  C3  LIG L   1      19.915  43.471  11.648  1.00  0.00     0.007 A
ATOM      4  C4  LIG L   1      19.774  42.597  12.786  1.00  0.00     0.024 A
ATOM      5  C5  LIG L   1      18.678  42.727  13.688  1.00  0.00     0.035 A
ATOM      6  C6  LIG L   1      17.698  43.772  13.436  1.00  0.00     0.047 A
ATOM      7  C7  LIG L   1      19.148  45.406  10.154  1.00  0.00     0.045 C
ENDROOT
BRANCH    1    8
ATOM      8  N1  LIG L   1      16.852  45.627  12.128  1.00  0.00    -0.283 N
ATOM      9  H1  LIG L   1      16.006  45.396  11.680  1.00  0.00     0.155 HD
BRANCH    8   10
ATOM     10  C8  LIG L   1      17.067  46.927  12.559  1.00  0.00     0.220 A
ATOM     11  C9  LIG L   1      16.238  49.155  12.712  1.00  0.00     0.077 A
ATOM     12 C10  LIG L   1      17.433  49.579  13.383  1.00  0.00     0.048 A
ATOM     13  N2  LIG L   1      16.101  47.840  12.327  1.00  0.00    -0.214 NA
ATOM     14 C11  LIG L   1      18.428  48.603  13.615  1.00  0.00     0.116 A
ATOM     15  N3  LIG L   1      18.232  47.303  13.202  1.00  0.00    -0.223 NA
BRANCH   11   16
ATOM     16 C12  LIG L   1      15.097  50.070  12.392  1.00  0.00     0.019 A
ATOM     17 C13  LIG L   1      13.879  52.272  12.570  1.00  0.00     0.020 A
ATOM     18 C14  LIG L   1      15.002  51.429  12.910  1.00  0.00     0.013 A
ATOM     19 C15  LIG L   1      12.858  51.734  11.710  1.00  0.00     0.111 A
ATOM     20  N4  LIG L   1      12.961  50.425  11.216  1.00  0.00    -0.263 NA
ATOM     21 C16  LIG L   1      14.031  49.591  11.525  1.00  0.00     0.120 A
ENDBRANCH   11   16
ENDBRANCH    8   10
ENDBRANCH    1    8
BRANCH    5   22
ATOM     22  N5  LIG L   1      18.600  41.810  14.798  1.00  0.00    -0.281 N
ATOM     23 C17  LIG L   1      17.629  41.747  15.784  1.00  0.00     0.248 C
ATOM     24  H2  LIG L   1      19.326  41.148  14.863  1.00  0.00     0.155 HD
ATOM     25  O1  LIG L   1      16.789  42.612  15.983  1.00  0.00    -0.270 OA
BRANCH   23   26
ATOM     26 C18  LIG L   1      17.595  40.558  16.689  1.00  0.00     0.037 A
ATOM     27 C19  LIG L   1      16.423  40.268  17.519  1.00  0.00     0.013 A
ATOM     28 C20  LIG L   1      18.751  39.689  16.748  1.00  0.00     0.013 A
ATOM     29 C21  LIG L   1      16.423  39.124  18.396  1.00  0.00     0.002 A
ATOM     30 C22  LIG L   1      18.747  38.568  17.608  1.00  0.00     0.002 A
ATOM     31 C23  LIG L   1      17.600  38.260  18.446  1.00  0.00    -0.064 A
BRANCH   31   32
ATOM     32 C24  LIG L   1      17.696  37.030  19.368  1.00  0.00    -0.043 C
BRANCH   32   33
ATOM     33  N6  LIG L   1      18.917  36.907  20.219  1.00  0.00     0.380 N
ATOM     34 C25  LIG L   1      19.097  38.140  21.070  1.00  0.00    -0.097 C
ATOM     35 C26  LIG L   1      18.877  35.658  21.104  1.00  0.00    -0.097 C
ATOM     36  H3  LIG L   1      19.714  36.815  19.589  1.00  0.00    -0.082 HD
ATOM     37 C27  LIG L   1      20.375  38.041  21.949  1.00  0.00    -0.098 C
ATOM     38 C28  LIG L   1      20.172  35.533  21.971  1.00  0.00    -0.098 C
ATOM     39  N7  LIG L   1      20.337  36.794  22.821  1.00  0.00     0.375 N
ATOM     40 C29  LIG L   1      21.522  36.655  23.680  1.00  0.00    -0.096 C
ATOM     41  H4  LIG L   1      19.527  36.906  23.431  1.00  0.00    -0.082 HD
ENDBRANCH   32   33
ENDBRANCH   31   32
ENDBRANCH   23   26
ENDBRANCH    5   22
TORSDOF 7