MODEL 1
REMARK VINA RESULT:   -12.963      0.000      0.000
REMARK INTER + INTRA:         -19.101
REMARK INTER:                 -18.635
REMARK INTRA:                  -0.466
REMARK UNBOUND:                -0.833
REMARK Flexibility Score: inf
REMARK Active torsions [ 7 ] -> [ 7 ]
ROOT
ATOM      1  C1  LIG L   1      15.830  54.714  12.401  1.00  0.00     0.038 A
ATOM      2  C2  LIG L   1      16.915  54.554  11.426  1.00  0.00    -0.029 A
ATOM      3  C3  LIG L   1      17.893  53.530  11.662  1.00  0.00     0.007 A
ATOM      4  C4  LIG L   1      17.806  52.684  12.826  1.00  0.00     0.024 A
ATOM      5  C5  LIG L   1      16.751  52.835  13.773  1.00  0.00     0.035 A
ATOM      6  C6  LIG L   1      15.759  53.873  13.541  1.00  0.00     0.047 A
ATOM      7  C7  LIG L   1      17.054  55.427  10.157  1.00  0.00     0.045 C
ENDROOT
BRANCH    1    8
ATOM      8  N1  LIG L   1      14.850  55.694  12.228  1.00  0.00    -0.283 N
ATOM      9  H1  LIG L   1      13.976  55.446  11.847  1.00  0.00     0.155 HD
BRANCH    8   10
ATOM     10  C8  LIG L   1      15.094  57.011  12.585  1.00  0.00     0.220 A
ATOM     11  C9  LIG L   1      14.260  59.238  12.738  1.00  0.00     0.077 A
ATOM     12 C10  LIG L   1      15.513  59.695  13.267  1.00  0.00     0.048 A
ATOM     13  N2  LIG L   1      14.099  57.908  12.419  1.00  0.00    -0.214 NA
ATOM     14 C11  LIG L   1      16.537  58.736  13.433  1.00  0.00     0.116 A
ATOM     15  N3  LIG L   1      16.314  57.420  13.091  1.00  0.00    -0.223 NA
BRANCH   11   16
ATOM     16 C12  LIG L   1      13.083  60.132  12.502  1.00  0.00     0.019 A
ATOM     17 C13  LIG L   1      11.811  62.286  12.825  1.00  0.00     0.020 A
ATOM     18 C14  LIG L   1      12.969  61.462  13.086  1.00  0.00     0.013 A
ATOM     19 C15  LIG L   1      10.774  61.757  11.979  1.00  0.00     0.111 A
ATOM     20  N4  LIG L   1      10.895  60.476  11.421  1.00  0.00    -0.263 NA
ATOM     21 C16  LIG L   1      11.999  59.661  11.653  1.00  0.00     0.120 A
ENDBRANCH   11   16
ENDBRANCH    8   10
ENDBRANCH    1    8
BRANCH    5   22
ATOM     22  N5  LIG L   1      16.726  51.946  14.908  1.00  0.00    -0.281 N
ATOM     23 C17  LIG L   1      15.681  51.717  15.788  1.00  0.00     0.248 C
ATOM     24  H2  LIG L   1      17.553  51.439  15.078  1.00  0.00     0.155 HD
ATOM     25  O1  LIG L   1      14.674  52.406  15.859  1.00  0.00    -0.270 OA
BRANCH   23   26
ATOM     26 C18  LIG L   1      15.773  50.565  16.735  1.00  0.00     0.037 A
ATOM     27 C19  LIG L   1      17.035  49.849  16.940  1.00  0.00     0.013 A
ATOM     28 C20  LIG L   1      14.586  50.148  17.450  1.00  0.00     0.013 A
ATOM     29 C21  LIG L   1      17.093  48.730  17.847  1.00  0.00     0.002 A
ATOM     30 C22  LIG L   1      14.646  49.052  18.339  1.00  0.00     0.002 A
ATOM     31 C23  LIG L   1      15.883  48.321  18.557  1.00  0.00    -0.064 A
BRANCH   31   32
ATOM     32 C24  LIG L   1      15.847  47.125  19.528  1.00  0.00    -0.043 C
BRANCH   32   33
ATOM     33  N6  LIG L   1      17.120  46.773  20.226  1.00  0.00     0.380 N
ATOM     34 C25  LIG L   1      17.417  47.766  21.321  1.00  0.00    -0.097 C
ATOM     35 C26  LIG L   1      17.087  45.353  20.798  1.00  0.00    -0.097 C
ATOM     36  H3  LIG L   1      17.864  46.809  19.529  1.00  0.00    -0.082 HD
ATOM     37 C27  LIG L   1      18.749  47.429  22.047  1.00  0.00    -0.098 C
ATOM     38 C28  LIG L   1      18.434  44.992  21.504  1.00  0.00    -0.098 C
ATOM     39  N7  LIG L   1      18.717  46.014  22.607  1.00  0.00     0.375 N
ATOM     40 C29  LIG L   1      19.953  45.645  23.312  1.00  0.00    -0.096 C
ATOM     41  H4  LIG L   1      17.959  46.002  23.290  1.00  0.00    -0.082 HD
ENDBRANCH   32   33
ENDBRANCH   31   32
ENDBRANCH   23   26
ENDBRANCH    5   22
TORSDOF 7
ENDMDL
MODEL 2
REMARK VINA RESULT:   -11.048      3.025     12.408
REMARK INTER + INTRA:         -16.402
REMARK INTER:                 -15.456
REMARK INTRA:                  -0.946
REMARK UNBOUND:                -0.833
REMARK Flexibility Score: inf
REMARK Active torsions [ 7 ] -> [ 7 ]
ROOT
ATOM      1  C1  LIG L   1      16.865  48.719  17.624  1.00  0.00     0.038 A
ATOM      2  C2  LIG L   1      15.539  48.425  18.179  1.00  0.00    -0.029 A
ATOM      3  C3  LIG L   1      14.473  49.349  17.915  1.00  0.00     0.007 A
ATOM      4  C4  LIG L   1      14.705  50.531  17.123  1.00  0.00     0.024 A
ATOM      5  C5  LIG L   1      15.991  50.817  16.579  1.00  0.00     0.035 A
ATOM      6  C6  LIG L   1      17.075  49.886  16.846  1.00  0.00     0.047 A
ATOM      7  C7  LIG L   1      15.232  47.170  19.030  1.00  0.00     0.045 C
ENDROOT
BRANCH    1    8
ATOM      8  N1  LIG L   1      17.942  47.858  17.849  1.00  0.00    -0.283 N
ATOM      9  H1  LIG L   1      18.000  47.010  17.351  1.00  0.00     0.155 HD
BRANCH    8   10
ATOM     10  C8  LIG L   1      18.931  48.185  18.763  1.00  0.00     0.220 A
ATOM     11  C9  LIG L   1      20.946  49.379  19.203  1.00  0.00     0.077 A
ATOM     12 C10  LIG L   1      20.976  48.879  20.547  1.00  0.00     0.048 A
ATOM     13  N2  LIG L   1      19.919  49.012  18.361  1.00  0.00    -0.214 NA
ATOM     14 C11  LIG L   1      19.930  48.017  20.943  1.00  0.00     0.116 A
ATOM     15  N3  LIG L   1      18.932  47.685  20.053  1.00  0.00    -0.223 NA
BRANCH   11   16
ATOM     16 C12  LIG L   1      21.983  50.297  18.635  1.00  0.00     0.019 A
ATOM     17 C13  LIG L   1      24.216  50.751  17.554  1.00  0.00     0.020 A
ATOM     18 C14  LIG L   1      23.249  49.822  18.091  1.00  0.00     0.013 A
ATOM     19 C15  LIG L   1      23.898  52.155  17.572  1.00  0.00     0.111 A
ATOM     20  N4  LIG L   1      22.676  52.600  18.097  1.00  0.00    -0.263 NA
ATOM     21 C16  LIG L   1      21.724  51.729  18.620  1.00  0.00     0.120 A
ENDBRANCH   11   16
ENDBRANCH    8   10
ENDBRANCH    1    8
BRANCH    5   22
ATOM     22  N5  LIG L   1      16.142  52.014  15.789  1.00  0.00    -0.281 N
ATOM     23 C17  LIG L   1      15.669  52.256  14.510  1.00  0.00     0.248 C
ATOM     24  H2  LIG L   1      16.643  52.749  16.211  1.00  0.00     0.155 HD
ATOM     25  O1  LIG L   1      15.225  51.396  13.763  1.00  0.00    -0.270 OA
BRANCH   23   26
ATOM     26 C18  LIG L   1      15.709  53.652  13.976  1.00  0.00     0.037 A
ATOM     27 C19  LIG L   1      16.972  54.387  13.866  1.00  0.00     0.013 A
ATOM     28 C20  LIG L   1      14.471  54.284  13.575  1.00  0.00     0.013 A
ATOM     29 C21  LIG L   1      16.980  55.738  13.365  1.00  0.00     0.002 A
ATOM     30 C22  LIG L   1      14.483  55.608  13.082  1.00  0.00     0.002 A
ATOM     31 C23  LIG L   1      15.720  56.363  12.968  1.00  0.00    -0.064 A
BRANCH   31   32
ATOM     32 C24  LIG L   1      15.632  57.808  12.442  1.00  0.00    -0.043 C
BRANCH   32   33
ATOM     33  N6  LIG L   1      14.364  58.553  12.699  1.00  0.00     0.380 N
ATOM     34 C25  LIG L   1      14.659  59.938  13.219  1.00  0.00    -0.097 C
ATOM     35 C26  LIG L   1      13.483  58.637  11.449  1.00  0.00    -0.097 C
ATOM     36  H3  LIG L   1      13.848  58.031  13.408  1.00  0.00    -0.082 HD
ATOM     37 C27  LIG L   1      13.351  60.724  13.514  1.00  0.00    -0.098 C
ATOM     38 C28  LIG L   1      12.150  59.400  11.742  1.00  0.00    -0.098 C
ATOM     39  N7  LIG L   1      12.473  60.798  12.272  1.00  0.00     0.375 N
ATOM     40 C29  LIG L   1      11.222  61.539  12.494  1.00  0.00    -0.096 C
ATOM     41  H4  LIG L   1      13.015  61.312  11.578  1.00  0.00    -0.082 HD
ENDBRANCH   32   33
ENDBRANCH   31   32
ENDBRANCH   23   26
ENDBRANCH    5   22
TORSDOF 7
ENDMDL
MODEL 3
REMARK VINA RESULT:   -10.862      3.830     12.306
REMARK INTER + INTRA:         -16.140
REMARK INTER:                 -15.945
REMARK INTRA:                  -0.195
REMARK UNBOUND:                -0.833
REMARK Flexibility Score: inf
REMARK Active torsions [ 7 ] -> [ 7 ]
ROOT
ATOM      1  C1  LIG L   1      18.143  48.643  18.870  1.00  0.00     0.038 A
ATOM      2  C2  LIG L   1      17.128  47.591  18.998  1.00  0.00    -0.029 A
ATOM      3  C3  LIG L   1      16.013  47.611  18.094  1.00  0.00     0.007 A
ATOM      4  C4  LIG L   1      15.900  48.639  17.089  1.00  0.00     0.024 A
ATOM      5  C5  LIG L   1      16.886  49.659  16.960  1.00  0.00     0.035 A
ATOM      6  C6  LIG L   1      18.017  49.645  17.874  1.00  0.00     0.047 A
ATOM      7  C7  LIG L   1      17.201  46.461  20.052  1.00  0.00     0.045 C
ENDROOT
BRANCH    1    8
ATOM      8  N1  LIG L   1      19.250  48.677  19.721  1.00  0.00    -0.283 N
ATOM      9  H1  LIG L   1      19.130  48.933  20.664  1.00  0.00     0.155 HD
BRANCH    8   10
ATOM     10  C8  LIG L   1      20.514  48.355  19.253  1.00  0.00     0.220 A
ATOM     11  C9  LIG L   1      22.640  49.133  18.513  1.00  0.00     0.077 A
ATOM     12 C10  LIG L   1      23.082  47.787  18.287  1.00  0.00     0.048 A
ATOM     13  N2  LIG L   1      21.370  49.365  18.991  1.00  0.00    -0.214 NA
ATOM     14 C11  LIG L   1      22.167  46.748  18.571  1.00  0.00     0.116 A
ATOM     15  N3  LIG L   1      20.907  47.046  19.045  1.00  0.00    -0.223 NA
BRANCH   11   16
ATOM     16 C12  LIG L   1      23.491  50.339  18.257  1.00  0.00     0.019 A
ATOM     17 C13  LIG L   1      25.032  51.723  16.819  1.00  0.00     0.020 A
ATOM     18 C14  LIG L   1      24.226  50.541  17.015  1.00  0.00     0.013 A
ATOM     19 C15  LIG L   1      25.092  52.693  17.881  1.00  0.00     0.111 A
ATOM     20  N4  LIG L   1      24.379  52.489  19.071  1.00  0.00    -0.263 NA
ATOM     21 C16  LIG L   1      23.593  51.361  19.288  1.00  0.00     0.120 A
ENDBRANCH   11   16
ENDBRANCH    8   10
ENDBRANCH    1    8
BRANCH    5   22
ATOM     22  N5  LIG L   1      16.709  50.647  15.924  1.00  0.00    -0.281 N
ATOM     23 C17  LIG L   1      15.723  51.616  15.832  1.00  0.00     0.248 C
ATOM     24  H2  LIG L   1      17.369  50.630  15.194  1.00  0.00     0.155 HD
ATOM     25  O1  LIG L   1      14.714  51.644  16.520  1.00  0.00    -0.270 OA
BRANCH   23   26
ATOM     26 C18  LIG L   1      15.874  52.704  14.818  1.00  0.00     0.037 A
ATOM     27 C19  LIG L   1      14.835  53.721  14.634  1.00  0.00     0.013 A
ATOM     28 C20  LIG L   1      17.067  52.739  13.999  1.00  0.00     0.013 A
ATOM     29 C21  LIG L   1      14.997  54.750  13.638  1.00  0.00     0.002 A
ATOM     30 C22  LIG L   1      17.223  53.750  13.024  1.00  0.00     0.002 A
ATOM     31 C23  LIG L   1      16.206  54.767  12.817  1.00  0.00    -0.064 A
BRANCH   31   32
ATOM     32 C24  LIG L   1      16.454  55.815  11.716  1.00  0.00    -0.043 C
BRANCH   32   33
ATOM     33  N6  LIG L   1      15.795  57.145  11.876  1.00  0.00     0.380 N
ATOM     34 C25  LIG L   1      14.303  56.982  12.037  1.00  0.00    -0.097 C
ATOM     35 C26  LIG L   1      16.368  57.932  13.058  1.00  0.00    -0.097 C
ATOM     36  H3  LIG L   1      15.985  57.679  11.028  1.00  0.00    -0.082 HD
ATOM     37 C27  LIG L   1      13.595  58.357  12.185  1.00  0.00    -0.098 C
ATOM     38 C28  LIG L   1      15.683  59.330  13.198  1.00  0.00    -0.098 C
ATOM     39  N7  LIG L   1      14.173  59.141  13.355  1.00  0.00     0.375 N
ATOM     40 C29  LIG L   1      13.532  60.451  13.544  1.00  0.00    -0.096 C
ATOM     41  H4  LIG L   1      13.981  58.582  14.186  1.00  0.00    -0.082 HD
ENDBRANCH   32   33
ENDBRANCH   31   32
ENDBRANCH   23   26
ENDBRANCH    5   22
TORSDOF 7
ENDMDL
MODEL 4
REMARK VINA RESULT:   -10.351      2.547     12.639
REMARK INTER + INTRA:         -15.419
REMARK INTER:                 -14.639
REMARK INTRA:                  -0.780
REMARK UNBOUND:                -0.833
REMARK Flexibility Score: inf
REMARK Active torsions [ 7 ] -> [ 7 ]
ROOT
ATOM      1  C1  LIG L   1      15.390  48.039  18.426  1.00  0.00     0.038 A
ATOM      2  C2  LIG L   1      14.075  47.858  19.052  1.00  0.00    -0.029 A
ATOM      3  C3  LIG L   1      13.069  48.854  18.815  1.00  0.00     0.007 A
ATOM      4  C4  LIG L   1      13.347  49.997  17.982  1.00  0.00     0.024 A
ATOM      5  C5  LIG L   1      14.622  50.173  17.369  1.00  0.00     0.035 A
ATOM      6  C6  LIG L   1      15.647  49.169  17.608  1.00  0.00     0.047 A
ATOM      7  C7  LIG L   1      13.719  46.650  19.950  1.00  0.00     0.045 C
ENDROOT
BRANCH    1    8
ATOM      8  N1  LIG L   1      16.410  47.105  18.621  1.00  0.00    -0.283 N
ATOM      9  H1  LIG L   1      16.411  46.269  18.101  1.00  0.00     0.155 HD
BRANCH    8   10
ATOM     10  C8  LIG L   1      17.421  47.343  19.540  1.00  0.00     0.220 A
ATOM     11  C9  LIG L   1      19.688  47.972  19.913  1.00  0.00     0.077 A
ATOM     12 C10  LIG L   1      19.521  47.824  21.330  1.00  0.00     0.048 A
ATOM     13  N2  LIG L   1      18.627  47.726  19.071  1.00  0.00    -0.214 NA
ATOM     14 C11  LIG L   1      18.249  47.422  21.795  1.00  0.00     0.116 A
ATOM     15  N3  LIG L   1      17.227  47.189  20.900  1.00  0.00    -0.223 NA
BRANCH   11   16
ATOM     16 C12  LIG L   1      20.974  48.386  19.268  1.00  0.00     0.019 A
ATOM     17 C13  LIG L   1      23.249  47.892  18.296  1.00  0.00     0.020 A
ATOM     18 C14  LIG L   1      22.026  47.440  18.918  1.00  0.00     0.013 A
ATOM     19 C15  LIG L   1      23.402  49.300  18.035  1.00  0.00     0.111 A
ATOM     20  N4  LIG L   1      22.382  50.201  18.375  1.00  0.00    -0.263 NA
ATOM     21 C16  LIG L   1      21.193  49.794  18.973  1.00  0.00     0.120 A
ENDBRANCH   11   16
ENDBRANCH    8   10
ENDBRANCH    1    8
BRANCH    5   22
ATOM     22  N5  LIG L   1      14.822  51.337  16.541  1.00  0.00    -0.281 N
ATOM     23 C17  LIG L   1      15.908  51.630  15.733  1.00  0.00     0.248 C
ATOM     24  H2  LIG L   1      14.098  52.004  16.552  1.00  0.00     0.155 HD
ATOM     25  O1  LIG L   1      16.974  51.034  15.764  1.00  0.00    -0.270 OA
BRANCH   23   26
ATOM     26 C18  LIG L   1      15.799  52.759  14.759  1.00  0.00     0.037 A
ATOM     27 C19  LIG L   1      16.813  52.969  13.723  1.00  0.00     0.013 A
ATOM     28 C20  LIG L   1      14.673  53.663  14.857  1.00  0.00     0.013 A
ATOM     29 C21  LIG L   1      16.693  54.076  12.807  1.00  0.00     0.002 A
ATOM     30 C22  LIG L   1      14.558  54.746  13.957  1.00  0.00     0.002 A
ATOM     31 C23  LIG L   1      15.552  54.981  12.923  1.00  0.00    -0.064 A
BRANCH   31   32
ATOM     32 C24  LIG L   1      15.354  56.200  12.003  1.00  0.00    -0.043 C
BRANCH   32   33
ATOM     33  N6  LIG L   1      14.606  57.365  12.562  1.00  0.00     0.380 N
ATOM     34 C25  LIG L   1      15.527  58.544  12.755  1.00  0.00    -0.097 C
ATOM     35 C26  LIG L   1      13.419  57.763  11.680  1.00  0.00    -0.097 C
ATOM     36  H3  LIG L   1      14.235  57.077  13.468  1.00  0.00    -0.082 HD
ATOM     37 C27  LIG L   1      14.772  59.762  13.357  1.00  0.00    -0.098 C
ATOM     38 C28  LIG L   1      12.635  58.969  12.291  1.00  0.00    -0.098 C
ATOM     39  N7  LIG L   1      13.588  60.150  12.483  1.00  0.00     0.375 N
ATOM     40 C29  LIG L   1      12.841  61.304  13.004  1.00  0.00    -0.096 C
ATOM     41  H4  LIG L   1      13.984  60.422  11.583  1.00  0.00    -0.082 HD
ENDBRANCH   32   33
ENDBRANCH   31   32
ENDBRANCH   23   26
ENDBRANCH    5   22
TORSDOF 7
ENDMDL
