MODEL 1
REMARK VINA RESULT:   -13.093      0.000      0.000
REMARK INTER + INTRA:         -19.074
REMARK INTER:                 -18.619
REMARK INTRA:                  -0.455
REMARK UNBOUND:                -0.623
REMARK Flexibility Score: inf
REMARK Active torsions [ 7 ] -> [ 7 ]
ROOT
ATOM      1  C1  LIG L   1      15.819  54.714  12.406  1.00  0.00     0.038 A
ATOM      2  C2  LIG L   1      16.905  54.550  11.432  1.00  0.00    -0.029 A
ATOM      3  C3  LIG L   1      17.880  53.525  11.671  1.00  0.00     0.007 A
ATOM      4  C4  LIG L   1      17.790  52.681  12.836  1.00  0.00     0.024 A
ATOM      5  C5  LIG L   1      16.734  52.836  13.782  1.00  0.00     0.035 A
ATOM      6  C6  LIG L   1      15.744  53.875  13.546  1.00  0.00     0.047 A
ATOM      7  C7  LIG L   1      17.048  55.421  10.162  1.00  0.00     0.045 C
ENDROOT
BRANCH    1    8
ATOM      8  N1  LIG L   1      14.841  55.696  12.229  1.00  0.00    -0.283 N
ATOM      9  H1  LIG L   1      13.967  55.449  11.850  1.00  0.00     0.155 HD
BRANCH    8   10
ATOM     10  C8  LIG L   1      15.089  57.014  12.581  1.00  0.00     0.220 A
ATOM     11  C9  LIG L   1      14.259  59.242  12.733  1.00  0.00     0.077 A
ATOM     12 C10  LIG L   1      15.515  59.700  13.253  1.00  0.00     0.048 A
ATOM     13  N2  LIG L   1      14.094  57.911  12.419  1.00  0.00    -0.214 NA
ATOM     14 C11  LIG L   1      16.539  58.740  13.415  1.00  0.00     0.116 A
ATOM     15  N3  LIG L   1      16.312  57.423  13.079  1.00  0.00    -0.223 NA
BRANCH   11   16
ATOM     16 C12  LIG L   1      13.081  60.136  12.502  1.00  0.00     0.019 A
ATOM     17 C13  LIG L   1      11.814  62.294  12.826  1.00  0.00     0.020 A
ATOM     18 C14  LIG L   1      12.973  61.470  13.080  1.00  0.00     0.013 A
ATOM     19 C15  LIG L   1      10.770  61.763  11.990  1.00  0.00     0.111 A
ATOM     20  N4  LIG L   1      10.885  60.478  11.437  1.00  0.00    -0.263 NA
ATOM     21 C16  LIG L   1      11.990  59.663  11.664  1.00  0.00     0.120 A
ENDBRANCH   11   16
ENDBRANCH    8   10
ENDBRANCH    1    8
BRANCH    5   22
ATOM     22  N5  LIG L   1      16.705  51.948  14.918  1.00  0.00    -0.281 N
ATOM     23 C17  LIG L   1      15.657  51.721  15.795  1.00  0.00     0.248 C
ATOM     24  H2  LIG L   1      17.532  51.442  15.092  1.00  0.00     0.155 HD
ATOM     25  O1  LIG L   1      14.650  52.410  15.861  1.00  0.00    -0.270 OA
BRANCH   23   26
ATOM     26 C18  LIG L   1      15.747  50.570  16.744  1.00  0.00     0.037 A
ATOM     27 C19  LIG L   1      17.006  49.849  16.948  1.00  0.00     0.013 A
ATOM     28 C20  LIG L   1      14.559  50.161  17.463  1.00  0.00     0.013 A
ATOM     29 C21  LIG L   1      17.060  48.731  17.857  1.00  0.00     0.002 A
ATOM     30 C22  LIG L   1      14.617  49.066  18.354  1.00  0.00     0.002 A
ATOM     31 C23  LIG L   1      15.851  48.329  18.571  1.00  0.00    -0.064 A
BRANCH   31   32
ATOM     32 C24  LIG L   1      15.812  47.136  19.544  1.00  0.00    -0.043 C
BRANCH   32   33
ATOM     33  N6  LIG L   1      17.087  46.773  20.232  1.00  0.00     0.380 N
ATOM     34 C25  LIG L   1      17.414  47.777  21.309  1.00  0.00    -0.097 C
ATOM     35 C26  LIG L   1      17.038  45.362  20.824  1.00  0.00    -0.097 C
ATOM     36  H3  LIG L   1      17.823  46.787  19.526  1.00  0.00    -0.082 HD
ATOM     37 C27  LIG L   1      18.749  47.428  22.024  1.00  0.00    -0.098 C
ATOM     38 C28  LIG L   1      18.388  44.989  21.520  1.00  0.00    -0.098 C
ATOM     39  N7  LIG L   1      18.701  46.022  22.604  1.00  0.00     0.375 N
ATOM     40 C29  LIG L   1      19.940  45.642  23.299  1.00  0.00    -0.096 C
ATOM     41  H4  LIG L   1      17.952  46.032  23.296  1.00  0.00    -0.082 HD
ENDBRANCH   32   33
ENDBRANCH   31   32
ENDBRANCH   23   26
ENDBRANCH    5   22
TORSDOF 7
ENDMDL
MODEL 2
REMARK VINA RESULT:   -11.152      3.036     12.425
REMARK INTER + INTRA:         -16.338
REMARK INTER:                 -15.377
REMARK INTRA:                  -0.961
REMARK UNBOUND:                -0.623
REMARK Flexibility Score: inf
REMARK Active torsions [ 7 ] -> [ 7 ]
ROOT
ATOM      1  C1  LIG L   1      16.872  48.702  17.618  1.00  0.00     0.038 A
ATOM      2  C2  LIG L   1      15.556  48.419  18.202  1.00  0.00    -0.029 A
ATOM      3  C3  LIG L   1      14.490  49.348  17.954  1.00  0.00     0.007 A
ATOM      4  C4  LIG L   1      14.712  50.523  17.150  1.00  0.00     0.024 A
ATOM      5  C5  LIG L   1      15.988  50.799  16.578  1.00  0.00     0.035 A
ATOM      6  C6  LIG L   1      17.073  49.863  16.828  1.00  0.00     0.047 A
ATOM      7  C7  LIG L   1      15.259  47.171  19.067  1.00  0.00     0.045 C
ENDROOT
BRANCH    1    8
ATOM      8  N1  LIG L   1      17.949  47.837  17.826  1.00  0.00    -0.283 N
ATOM      9  H1  LIG L   1      18.002  46.995  17.317  1.00  0.00     0.155 HD
BRANCH    8   10
ATOM     10  C8  LIG L   1      18.943  48.150  18.740  1.00  0.00     0.220 A
ATOM     11  C9  LIG L   1      20.967  49.325  19.182  1.00  0.00     0.077 A
ATOM     12 C10  LIG L   1      20.998  48.816  20.522  1.00  0.00     0.048 A
ATOM     13  N2  LIG L   1      19.935  48.972  18.341  1.00  0.00    -0.214 NA
ATOM     14 C11  LIG L   1      19.947  47.958  20.915  1.00  0.00     0.116 A
ATOM     15  N3  LIG L   1      18.944  47.639  20.025  1.00  0.00    -0.223 NA
BRANCH   11   16
ATOM     16 C12  LIG L   1      22.009  50.241  18.618  1.00  0.00     0.019 A
ATOM     17 C13  LIG L   1      24.239  50.687  17.526  1.00  0.00     0.020 A
ATOM     18 C14  LIG L   1      23.266  49.761  18.059  1.00  0.00     0.013 A
ATOM     19 C15  LIG L   1      23.934  52.093  17.564  1.00  0.00     0.111 A
ATOM     20  N4  LIG L   1      22.719  52.543  18.103  1.00  0.00    -0.263 NA
ATOM     21 C16  LIG L   1      21.763  51.675  18.621  1.00  0.00     0.120 A
ENDBRANCH   11   16
ENDBRANCH    8   10
ENDBRANCH    1    8
BRANCH    5   22
ATOM     22  N5  LIG L   1      16.130  51.990  15.778  1.00  0.00    -0.281 N
ATOM     23 C17  LIG L   1      15.639  52.224  14.504  1.00  0.00     0.248 C
ATOM     24  H2  LIG L   1      16.639  52.727  16.187  1.00  0.00     0.155 HD
ATOM     25  O1  LIG L   1      15.182  51.360  13.770  1.00  0.00    -0.270 OA
BRANCH   23   26
ATOM     26 C18  LIG L   1      15.674  53.616  13.960  1.00  0.00     0.037 A
ATOM     27 C19  LIG L   1      16.942  54.321  13.757  1.00  0.00     0.013 A
ATOM     28 C20  LIG L   1      14.425  54.276  13.643  1.00  0.00     0.013 A
ATOM     29 C21  LIG L   1      16.947  55.669  13.247  1.00  0.00     0.002 A
ATOM     30 C22  LIG L   1      14.434  55.597  13.143  1.00  0.00     0.002 A
ATOM     31 C23  LIG L   1      15.677  56.321  12.937  1.00  0.00    -0.064 A
BRANCH   31   32
ATOM     32 C24  LIG L   1      15.586  57.766  12.409  1.00  0.00    -0.043 C
BRANCH   32   33
ATOM     33  N6  LIG L   1      14.311  58.504  12.656  1.00  0.00     0.380 N
ATOM     34 C25  LIG L   1      14.595  59.895  13.167  1.00  0.00    -0.097 C
ATOM     35 C26  LIG L   1      13.435  58.573  11.402  1.00  0.00    -0.097 C
ATOM     36  H3  LIG L   1      13.796  57.985  13.366  1.00  0.00    -0.082 HD
ATOM     37 C27  LIG L   1      13.281  60.675  13.450  1.00  0.00    -0.098 C
ATOM     38 C28  LIG L   1      12.096  59.330  11.684  1.00  0.00    -0.098 C
ATOM     39  N7  LIG L   1      12.407  60.734  12.205  1.00  0.00     0.375 N
ATOM     40 C29  LIG L   1      11.151  61.468  12.416  1.00  0.00    -0.096 C
ATOM     41  H4  LIG L   1      12.950  61.247  11.509  1.00  0.00    -0.082 HD
ENDBRANCH   32   33
ENDBRANCH   31   32
ENDBRANCH   23   26
ENDBRANCH    5   22
TORSDOF 7
ENDMDL
MODEL 3
REMARK VINA RESULT:   -11.002      3.758     12.228
REMARK INTER + INTRA:         -16.127
REMARK INTER:                 -15.873
REMARK INTRA:                  -0.254
REMARK UNBOUND:                -0.623
REMARK Flexibility Score: inf
REMARK Active torsions [ 7 ] -> [ 7 ]
ROOT
ATOM      1  C1  LIG L   1      18.074  48.617  18.882  1.00  0.00     0.038 A
ATOM      2  C2  LIG L   1      17.065  47.557  18.998  1.00  0.00    -0.029 A
ATOM      3  C3  LIG L   1      15.959  47.571  18.084  1.00  0.00     0.007 A
ATOM      4  C4  LIG L   1      15.848  48.599  17.080  1.00  0.00     0.024 A
ATOM      5  C5  LIG L   1      16.827  49.628  16.962  1.00  0.00     0.035 A
ATOM      6  C6  LIG L   1      17.950  49.620  17.887  1.00  0.00     0.047 A
ATOM      7  C7  LIG L   1      17.137  46.426  20.050  1.00  0.00     0.045 C
ENDROOT
BRANCH    1    8
ATOM      8  N1  LIG L   1      19.172  48.658  19.744  1.00  0.00    -0.283 N
ATOM      9  H1  LIG L   1      19.039  48.897  20.690  1.00  0.00     0.155 HD
BRANCH    8   10
ATOM     10  C8  LIG L   1      20.446  48.366  19.283  1.00  0.00     0.220 A
ATOM     11  C9  LIG L   1      22.530  49.195  18.480  1.00  0.00     0.077 A
ATOM     12 C10  LIG L   1      23.030  47.859  18.326  1.00  0.00     0.048 A
ATOM     13  N2  LIG L   1      21.254  49.396  18.956  1.00  0.00    -0.214 NA
ATOM     14 C11  LIG L   1      22.165  46.799  18.677  1.00  0.00     0.116 A
ATOM     15  N3  LIG L   1      20.896  47.066  19.145  1.00  0.00    -0.223 NA
BRANCH   11   16
ATOM     16 C12  LIG L   1      23.323  50.421  18.148  1.00  0.00     0.019 A
ATOM     17 C13  LIG L   1      24.977  51.700  16.736  1.00  0.00     0.020 A
ATOM     18 C14  LIG L   1      24.234  50.492  17.013  1.00  0.00     0.013 A
ATOM     19 C15  LIG L   1      24.795  52.828  17.612  1.00  0.00     0.111 A
ATOM     20  N4  LIG L   1      23.914  52.749  18.701  1.00  0.00    -0.263 NA
ATOM     21 C16  LIG L   1      23.185  51.600  18.991  1.00  0.00     0.120 A
ENDBRANCH   11   16
ENDBRANCH    8   10
ENDBRANCH    1    8
BRANCH    5   22
ATOM     22  N5  LIG L   1      16.652  50.617  15.927  1.00  0.00    -0.281 N
ATOM     23 C17  LIG L   1      15.694  51.614  15.855  1.00  0.00     0.248 C
ATOM     24  H2  LIG L   1      17.292  50.577  15.180  1.00  0.00     0.155 HD
ATOM     25  O1  LIG L   1      14.704  51.674  16.570  1.00  0.00    -0.270 OA
BRANCH   23   26
ATOM     26 C18  LIG L   1      15.850  52.694  14.833  1.00  0.00     0.037 A
ATOM     27 C19  LIG L   1      14.800  53.692  14.616  1.00  0.00     0.013 A
ATOM     28 C20  LIG L   1      17.060  52.738  14.040  1.00  0.00     0.013 A
ATOM     29 C21  LIG L   1      14.969  54.713  13.612  1.00  0.00     0.002 A
ATOM     30 C22  LIG L   1      17.222  53.740  13.057  1.00  0.00     0.002 A
ATOM     31 C23  LIG L   1      16.195  54.740  12.818  1.00  0.00    -0.064 A
BRANCH   31   32
ATOM     32 C24  LIG L   1      16.451  55.779  11.710  1.00  0.00    -0.043 C
BRANCH   32   33
ATOM     33  N6  LIG L   1      15.814  57.120  11.871  1.00  0.00     0.380 N
ATOM     34 C25  LIG L   1      14.319  56.983  12.016  1.00  0.00    -0.097 C
ATOM     35 C26  LIG L   1      16.390  57.891  13.062  1.00  0.00    -0.097 C
ATOM     36  H3  LIG L   1      16.022  57.654  11.027  1.00  0.00    -0.082 HD
ATOM     37 C27  LIG L   1      13.634  58.371  12.164  1.00  0.00    -0.098 C
ATOM     38 C28  LIG L   1      15.729  59.301  13.202  1.00  0.00    -0.098 C
ATOM     39  N7  LIG L   1      14.214  59.139  13.343  1.00  0.00     0.375 N
ATOM     40 C29  LIG L   1      13.595  60.458  13.533  1.00  0.00    -0.096 C
ATOM     41  H4  LIG L   1      14.004  58.579  14.170  1.00  0.00    -0.082 HD
ENDBRANCH   32   33
ENDBRANCH   31   32
ENDBRANCH   23   26
ENDBRANCH    5   22
TORSDOF 7
ENDMDL
MODEL 4
REMARK VINA RESULT:   -10.523      1.318      1.979
REMARK INTER + INTRA:         -15.453
REMARK INTER:                 -14.475
REMARK INTRA:                  -0.978
REMARK UNBOUND:                -0.623
REMARK Flexibility Score: inf
REMARK Active torsions [ 7 ] -> [ 7 ]
ROOT
ATOM      1  C1  LIG L   1      16.389  55.565  12.968  1.00  0.00     0.038 A
ATOM      2  C2  LIG L   1      17.030  55.052  11.752  1.00  0.00    -0.029 A
ATOM      3  C3  LIG L   1      17.516  53.701  11.760  1.00  0.00     0.007 A
ATOM      4  C4  LIG L   1      17.373  52.876  12.933  1.00  0.00     0.024 A
ATOM      5  C5  LIG L   1      16.748  53.370  14.115  1.00  0.00     0.035 A
ATOM      6  C6  LIG L   1      16.255  54.739  14.113  1.00  0.00     0.047 A
ATOM      7  C7  LIG L   1      17.205  55.889  10.463  1.00  0.00     0.045 C
ENDROOT
BRANCH    1    8
ATOM      8  N1  LIG L   1      15.898  56.872  13.021  1.00  0.00    -0.283 N
ATOM      9  H1  LIG L   1      16.464  57.590  13.388  1.00  0.00     0.155 HD
BRANCH    8   10
ATOM     10  C8  LIG L   1      14.624  57.169  12.565  1.00  0.00     0.220 A
ATOM     11  C9  LIG L   1      12.976  58.841  12.154  1.00  0.00     0.077 A
ATOM     12 C10  LIG L   1      12.056  57.850  11.675  1.00  0.00     0.048 A
ATOM     13  N2  LIG L   1      14.229  58.460  12.580  1.00  0.00    -0.214 NA
ATOM     14 C11  LIG L   1      12.495  56.507  11.667  1.00  0.00     0.116 A
ATOM     15  N3  LIG L   1      13.760  56.189  12.110  1.00  0.00    -0.223 NA
BRANCH   11   16
ATOM     16 C12  LIG L   1      12.659  60.302  12.227  1.00  0.00     0.019 A
ATOM     17 C13  LIG L   1      11.113  62.272  11.923  1.00  0.00     0.020 A
ATOM     18 C14  LIG L   1      11.368  60.853  11.834  1.00  0.00     0.013 A
ATOM     19 C15  LIG L   1      12.166  63.125  12.408  1.00  0.00     0.111 A
ATOM     20  N4  LIG L   1      13.404  62.584  12.785  1.00  0.00    -0.263 NA
ATOM     21 C16  LIG L   1      13.678  61.222  12.711  1.00  0.00     0.120 A
ENDBRANCH   11   16
ENDBRANCH    8   10
ENDBRANCH    1    8
BRANCH    5   22
ATOM     22  N5  LIG L   1      16.633  52.482  15.245  1.00  0.00    -0.281 N
ATOM     23 C17  LIG L   1      15.724  51.454  15.431  1.00  0.00     0.248 C
ATOM     24  H2  LIG L   1      17.281  52.624  15.973  1.00  0.00     0.155 HD
ATOM     25  O1  LIG L   1      14.728  51.279  14.745  1.00  0.00    -0.270 OA
BRANCH   23   26
ATOM     26 C18  LIG L   1      15.944  50.490  16.552  1.00  0.00     0.037 A
ATOM     27 C19  LIG L   1      14.819  49.938  17.312  1.00  0.00     0.013 A
ATOM     28 C20  LIG L   1      17.298  50.108  16.892  1.00  0.00     0.013 A
ATOM     29 C21  LIG L   1      15.060  49.023  18.399  1.00  0.00     0.002 A
ATOM     30 C22  LIG L   1      17.531  49.209  17.957  1.00  0.00     0.002 A
ATOM     31 C23  LIG L   1      16.434  48.651  18.731  1.00  0.00    -0.064 A
BRANCH   31   32
ATOM     32 C24  LIG L   1      16.786  47.698  19.888  1.00  0.00    -0.043 C
BRANCH   32   33
ATOM     33  N6  LIG L   1      18.231  47.546  20.233  1.00  0.00     0.380 N
ATOM     34 C25  LIG L   1      18.498  48.047  21.631  1.00  0.00    -0.097 C
ATOM     35 C26  LIG L   1      18.705  46.097  20.094  1.00  0.00    -0.097 C
ATOM     36  H3  LIG L   1      18.760  48.110  19.568  1.00  0.00    -0.082 HD
ATOM     37 C27  LIG L   1      20.001  47.917  22.003  1.00  0.00    -0.098 C
ATOM     38 C28  LIG L   1      20.225  45.960  20.437  1.00  0.00    -0.098 C
ATOM     39  N7  LIG L   1      20.473  46.477  21.855  1.00  0.00     0.375 N
ATOM     40 C29  LIG L   1      21.890  46.296  22.202  1.00  0.00    -0.096 C
ATOM     41  H4  LIG L   1      19.922  45.935  22.521  1.00  0.00    -0.082 HD
ENDBRANCH   32   33
ENDBRANCH   31   32
ENDBRANCH   23   26
ENDBRANCH    5   22
TORSDOF 7
ENDMDL
MODEL 5
REMARK VINA RESULT:   -10.289      2.502     12.523
REMARK INTER + INTRA:         -15.123
REMARK INTER:                 -14.879
REMARK INTRA:                  -0.243
REMARK UNBOUND:                -0.623
REMARK Flexibility Score: inf
REMARK Active torsions [ 7 ] -> [ 7 ]
ROOT
ATOM      1  C1  LIG L   1      15.274  48.113  18.341  1.00  0.00     0.038 A
ATOM      2  C2  LIG L   1      13.963  47.994  18.990  1.00  0.00    -0.029 A
ATOM      3  C3  LIG L   1      12.986  49.014  18.737  1.00  0.00     0.007 A
ATOM      4  C4  LIG L   1      13.289  50.122  17.865  1.00  0.00     0.024 A
ATOM      5  C5  LIG L   1      14.560  50.239  17.230  1.00  0.00     0.035 A
ATOM      6  C6  LIG L   1      15.555  49.209  17.486  1.00  0.00     0.047 A
ATOM      7  C7  LIG L   1      13.582  46.826  19.929  1.00  0.00     0.045 C
ENDROOT
BRANCH    1    8
ATOM      8  N1  LIG L   1      16.267  47.154  18.551  1.00  0.00    -0.283 N
ATOM      9  H1  LIG L   1      16.255  46.319  18.029  1.00  0.00     0.155 HD
BRANCH    8   10
ATOM     10  C8  LIG L   1      17.269  47.363  19.486  1.00  0.00     0.220 A
ATOM     11  C9  LIG L   1      19.556  47.891  19.895  1.00  0.00     0.077 A
ATOM     12 C10  LIG L   1      19.351  47.784  21.311  1.00  0.00     0.048 A
ATOM     13  N2  LIG L   1      18.501  47.677  19.036  1.00  0.00    -0.214 NA
ATOM     14 C11  LIG L   1      18.051  47.456  21.757  1.00  0.00     0.116 A
ATOM     15  N3  LIG L   1      17.039  47.251  20.845  1.00  0.00    -0.223 NA
BRANCH   11   16
ATOM     16 C12  LIG L   1      20.874  48.228  19.270  1.00  0.00     0.019 A
ATOM     17 C13  LIG L   1      23.121  47.597  18.314  1.00  0.00     0.020 A
ATOM     18 C14  LIG L   1      21.864  47.218  18.916  1.00  0.00     0.013 A
ATOM     19 C15  LIG L   1      23.370  48.994  18.076  1.00  0.00     0.111 A
ATOM     20  N4  LIG L   1      22.409  49.957  18.419  1.00  0.00    -0.263 NA
ATOM     21 C16  LIG L   1      21.189  49.622  18.999  1.00  0.00     0.120 A
ENDBRANCH   11   16
ENDBRANCH    8   10
ENDBRANCH    1    8
BRANCH    5   22
ATOM     22  N5  LIG L   1      14.785  51.370  16.365  1.00  0.00    -0.281 N
ATOM     23 C17  LIG L   1      15.958  51.731  15.723  1.00  0.00     0.248 C
ATOM     24  H2  LIG L   1      14.010  51.958  16.212  1.00  0.00     0.155 HD
ATOM     25  O1  LIG L   1      17.055  51.252  15.968  1.00  0.00    -0.270 OA
BRANCH   23   26
ATOM     26 C18  LIG L   1      15.908  52.788  14.667  1.00  0.00     0.037 A
ATOM     27 C19  LIG L   1      14.770  53.705  14.563  1.00  0.00     0.013 A
ATOM     28 C20  LIG L   1      17.004  52.892  13.727  1.00  0.00     0.013 A
ATOM     29 C21  LIG L   1      14.738  54.703  13.524  1.00  0.00     0.002 A
ATOM     30 C22  LIG L   1      16.970  53.873  12.711  1.00  0.00     0.002 A
ATOM     31 C23  LIG L   1      15.851  54.791  12.581  1.00  0.00    -0.064 A
BRANCH   31   32
ATOM     32 C24  LIG L   1      15.892  55.812  11.429  1.00  0.00    -0.043 C
BRANCH   32   33
ATOM     33  N6  LIG L   1      15.370  57.183  11.711  1.00  0.00     0.380 N
ATOM     34 C25  LIG L   1      13.872  57.154  11.888  1.00  0.00    -0.097 C
ATOM     35 C26  LIG L   1      16.034  57.809  12.940  1.00  0.00    -0.097 C
ATOM     36  H3  LIG L   1      15.601  57.764  10.904  1.00  0.00    -0.082 HD
ATOM     37 C27  LIG L   1      13.305  58.575  12.162  1.00  0.00    -0.098 C
ATOM     38 C28  LIG L   1      15.492  59.251  13.207  1.00  0.00    -0.098 C
ATOM     39  N7  LIG L   1      13.973  59.199  13.379  1.00  0.00     0.375 N
ATOM     40 C29  LIG L   1      13.468  60.544  13.688  1.00  0.00    -0.096 C
ATOM     41  H4  LIG L   1      13.737  58.594  14.166  1.00  0.00    -0.082 HD
ENDBRANCH   32   33
ENDBRANCH   31   32
ENDBRANCH   23   26
ENDBRANCH    5   22
TORSDOF 7
ENDMDL
