MODEL 1
REMARK VINA RESULT:   -13.264      0.000      0.000
REMARK INTER + INTRA:         -19.119
REMARK INTER:                 -18.664
REMARK INTRA:                  -0.455
REMARK UNBOUND:                -0.427
REMARK Flexibility Score: inf
REMARK Active torsions [ 7 ] -> [ 7 ]
ROOT
ATOM      1  C1  LIG L   1      15.823  54.723  12.400  1.00  0.00     0.038 A
ATOM      2  C2  LIG L   1      16.898  54.560  11.414  1.00  0.00    -0.029 A
ATOM      3  C3  LIG L   1      17.878  53.536  11.643  1.00  0.00     0.007 A
ATOM      4  C4  LIG L   1      17.801  52.692  12.810  1.00  0.00     0.024 A
ATOM      5  C5  LIG L   1      16.755  52.845  13.767  1.00  0.00     0.035 A
ATOM      6  C6  LIG L   1      15.761  53.883  13.541  1.00  0.00     0.047 A
ATOM      7  C7  LIG L   1      17.026  55.431  10.143  1.00  0.00     0.045 C
ENDROOT
BRANCH    1    8
ATOM      8  N1  LIG L   1      14.842  55.703  12.233  1.00  0.00    -0.283 N
ATOM      9  H1  LIG L   1      13.965  55.456  11.858  1.00  0.00     0.155 HD
BRANCH    8   10
ATOM     10  C8  LIG L   1      15.088  57.020  12.590  1.00  0.00     0.220 A
ATOM     11  C9  LIG L   1      14.260  59.248  12.742  1.00  0.00     0.077 A
ATOM     12 C10  LIG L   1      15.513  59.703  13.271  1.00  0.00     0.048 A
ATOM     13  N2  LIG L   1      14.096  57.918  12.423  1.00  0.00    -0.214 NA
ATOM     14 C11  LIG L   1      16.535  58.742  13.437  1.00  0.00     0.116 A
ATOM     15  N3  LIG L   1      16.309  57.426  13.097  1.00  0.00    -0.223 NA
BRANCH   11   16
ATOM     16 C12  LIG L   1      13.084  60.144  12.505  1.00  0.00     0.019 A
ATOM     17 C13  LIG L   1      11.820  62.305  12.821  1.00  0.00     0.020 A
ATOM     18 C14  LIG L   1      12.977  61.479  13.081  1.00  0.00     0.013 A
ATOM     19 C15  LIG L   1      10.779  61.774  11.981  1.00  0.00     0.111 A
ATOM     20  N4  LIG L   1      10.894  60.489  11.430  1.00  0.00    -0.263 NA
ATOM     21 C16  LIG L   1      11.996  59.672  11.662  1.00  0.00     0.120 A
ENDBRANCH   11   16
ENDBRANCH    8   10
ENDBRANCH    1    8
BRANCH    5   22
ATOM     22  N5  LIG L   1      16.740  51.958  14.903  1.00  0.00    -0.281 N
ATOM     23 C17  LIG L   1      15.710  51.747  15.805  1.00  0.00     0.248 C
ATOM     24  H2  LIG L   1      17.562  51.439  15.056  1.00  0.00     0.155 HD
ATOM     25  O1  LIG L   1      14.716  52.452  15.896  1.00  0.00    -0.270 OA
BRANCH   23   26
ATOM     26 C18  LIG L   1      15.804  50.595  16.752  1.00  0.00     0.037 A
ATOM     27 C19  LIG L   1      17.070  49.889  16.966  1.00  0.00     0.013 A
ATOM     28 C20  LIG L   1      14.614  50.168  17.457  1.00  0.00     0.013 A
ATOM     29 C21  LIG L   1      17.130  48.770  17.873  1.00  0.00     0.002 A
ATOM     30 C22  LIG L   1      14.677  49.071  18.346  1.00  0.00     0.002 A
ATOM     31 C23  LIG L   1      15.918  48.350  18.573  1.00  0.00    -0.064 A
BRANCH   31   32
ATOM     32 C24  LIG L   1      15.884  47.153  19.542  1.00  0.00    -0.043 C
BRANCH   32   33
ATOM     33  N6  LIG L   1      17.153  46.812  20.252  1.00  0.00     0.380 N
ATOM     34 C25  LIG L   1      17.453  47.832  21.322  1.00  0.00    -0.097 C
ATOM     35 C26  LIG L   1      17.111  45.407  20.860  1.00  0.00    -0.097 C
ATOM     36  H3  LIG L   1      17.899  46.826  19.556  1.00  0.00    -0.082 HD
ATOM     37 C27  LIG L   1      18.782  47.506  22.060  1.00  0.00    -0.098 C
ATOM     38 C28  LIG L   1      18.454  45.058  21.579  1.00  0.00    -0.098 C
ATOM     39  N7  LIG L   1      18.741  46.106  22.656  1.00  0.00     0.375 N
ATOM     40 C29  LIG L   1      19.974  45.749  23.373  1.00  0.00    -0.096 C
ATOM     41  H4  LIG L   1      17.982  46.117  23.337  1.00  0.00    -0.082 HD
ENDBRANCH   32   33
ENDBRANCH   31   32
ENDBRANCH   23   26
ENDBRANCH    5   22
TORSDOF 7
ENDMDL
MODEL 2
REMARK VINA RESULT:   -11.298      3.004     12.409
REMARK INTER + INTRA:         -16.348
REMARK INTER:                 -15.398
REMARK INTRA:                  -0.950
REMARK UNBOUND:                -0.427
REMARK Flexibility Score: inf
REMARK Active torsions [ 7 ] -> [ 7 ]
ROOT
ATOM      1  C1  LIG L   1      16.873  48.701  17.619  1.00  0.00     0.038 A
ATOM      2  C2  LIG L   1      15.547  48.409  18.178  1.00  0.00    -0.029 A
ATOM      3  C3  LIG L   1      14.482  49.333  17.913  1.00  0.00     0.007 A
ATOM      4  C4  LIG L   1      14.712  50.513  17.117  1.00  0.00     0.024 A
ATOM      5  C5  LIG L   1      15.997  50.797  16.570  1.00  0.00     0.035 A
ATOM      6  C6  LIG L   1      17.082  49.866  16.838  1.00  0.00     0.047 A
ATOM      7  C7  LIG L   1      15.241  47.156  19.032  1.00  0.00     0.045 C
ENDROOT
BRANCH    1    8
ATOM      8  N1  LIG L   1      17.950  47.841  17.844  1.00  0.00    -0.283 N
ATOM      9  H1  LIG L   1      18.010  46.995  17.344  1.00  0.00     0.155 HD
BRANCH    8   10
ATOM     10  C8  LIG L   1      18.936  48.165  18.764  1.00  0.00     0.220 A
ATOM     11  C9  LIG L   1      20.946  49.361  19.215  1.00  0.00     0.077 A
ATOM     12 C10  LIG L   1      20.974  48.855  20.557  1.00  0.00     0.048 A
ATOM     13  N2  LIG L   1      19.923  48.996  18.369  1.00  0.00    -0.214 NA
ATOM     14 C11  LIG L   1      19.928  47.988  20.946  1.00  0.00     0.116 A
ATOM     15  N3  LIG L   1      18.933  47.659  20.050  1.00  0.00    -0.223 NA
BRANCH   11   16
ATOM     16 C12  LIG L   1      21.983  50.284  18.655  1.00  0.00     0.019 A
ATOM     17 C13  LIG L   1      24.218  50.748  17.580  1.00  0.00     0.020 A
ATOM     18 C14  LIG L   1      23.250  49.814  18.109  1.00  0.00     0.013 A
ATOM     19 C15  LIG L   1      23.898  52.151  17.608  1.00  0.00     0.111 A
ATOM     20  N4  LIG L   1      22.674  52.591  18.134  1.00  0.00    -0.263 NA
ATOM     21 C16  LIG L   1      21.723  51.716  18.649  1.00  0.00     0.120 A
ENDBRANCH   11   16
ENDBRANCH    8   10
ENDBRANCH    1    8
BRANCH    5   22
ATOM     22  N5  LIG L   1      16.148  51.992  15.777  1.00  0.00    -0.281 N
ATOM     23 C17  LIG L   1      15.677  52.229  14.496  1.00  0.00     0.248 C
ATOM     24  H2  LIG L   1      16.646  52.730  16.198  1.00  0.00     0.155 HD
ATOM     25  O1  LIG L   1      15.236  51.366  13.751  1.00  0.00    -0.270 OA
BRANCH   23   26
ATOM     26 C18  LIG L   1      15.715  53.623  13.959  1.00  0.00     0.037 A
ATOM     27 C19  LIG L   1      16.983  54.335  13.783  1.00  0.00     0.013 A
ATOM     28 C20  LIG L   1      14.470  54.277  13.619  1.00  0.00     0.013 A
ATOM     29 C21  LIG L   1      16.991  55.686  13.279  1.00  0.00     0.002 A
ATOM     30 C22  LIG L   1      14.481  55.601  13.125  1.00  0.00     0.002 A
ATOM     31 C23  LIG L   1      15.724  56.332  12.946  1.00  0.00    -0.064 A
BRANCH   31   32
ATOM     32 C24  LIG L   1      15.635  57.778  12.422  1.00  0.00    -0.043 C
BRANCH   32   33
ATOM     33  N6  LIG L   1      14.359  58.516  12.663  1.00  0.00     0.380 N
ATOM     34 C25  LIG L   1      14.640  59.909  13.171  1.00  0.00    -0.097 C
ATOM     35 C26  LIG L   1      13.486  58.580  11.407  1.00  0.00    -0.097 C
ATOM     36  H3  LIG L   1      13.843  57.997  13.374  1.00  0.00    -0.082 HD
ATOM     37 C27  LIG L   1      13.324  60.687  13.449  1.00  0.00    -0.098 C
ATOM     38 C28  LIG L   1      12.145  59.336  11.684  1.00  0.00    -0.098 C
ATOM     39  N7  LIG L   1      12.453  60.742  12.202  1.00  0.00     0.375 N
ATOM     40 C29  LIG L   1      11.196  61.475  12.408  1.00  0.00    -0.096 C
ATOM     41  H4  LIG L   1      12.996  61.253  11.506  1.00  0.00    -0.082 HD
ENDBRANCH   32   33
ENDBRANCH   31   32
ENDBRANCH   23   26
ENDBRANCH    5   22
TORSDOF 7
ENDMDL
MODEL 3
REMARK VINA RESULT:   -11.018      3.889     12.266
REMARK INTER + INTRA:         -15.953
REMARK INTER:                 -15.109
REMARK INTRA:                  -0.844
REMARK UNBOUND:                -0.427
REMARK Flexibility Score: inf
REMARK Active torsions [ 7 ] -> [ 7 ]
ROOT
ATOM      1  C1  LIG L   1      18.469  48.586  19.028  1.00  0.00     0.038 A
ATOM      2  C2  LIG L   1      17.491  47.508  19.216  1.00  0.00    -0.029 A
ATOM      3  C3  LIG L   1      16.331  47.490  18.371  1.00  0.00     0.007 A
ATOM      4  C4  LIG L   1      16.138  48.505  17.365  1.00  0.00     0.024 A
ATOM      5  C5  LIG L   1      17.087  49.551  17.178  1.00  0.00     0.035 A
ATOM      6  C6  LIG L   1      18.264  49.576  18.033  1.00  0.00     0.047 A
ATOM      7  C7  LIG L   1      17.650  46.390  20.273  1.00  0.00     0.045 C
ENDROOT
BRANCH    1    8
ATOM      8  N1  LIG L   1      19.617  48.659  19.820  1.00  0.00    -0.283 N
ATOM      9  H1  LIG L   1      19.532  48.845  20.784  1.00  0.00     0.155 HD
BRANCH    8   10
ATOM     10  C8  LIG L   1      20.874  48.471  19.267  1.00  0.00     0.220 A
ATOM     11  C9  LIG L   1      22.841  49.468  18.367  1.00  0.00     0.077 A
ATOM     12 C10  LIG L   1      23.415  48.175  18.126  1.00  0.00     0.048 A
ATOM     13  N2  LIG L   1      21.589  49.564  18.932  1.00  0.00    -0.214 NA
ATOM     14 C11  LIG L   1      22.645  47.046  18.487  1.00  0.00     0.116 A
ATOM     15  N3  LIG L   1      21.397  47.210  19.046  1.00  0.00    -0.223 NA
BRANCH   11   16
ATOM     16 C12  LIG L   1      23.530  50.755  18.037  1.00  0.00     0.019 A
ATOM     17 C13  LIG L   1      25.184  52.133  16.722  1.00  0.00     0.020 A
ATOM     18 C14  LIG L   1      24.550  50.866  17.002  1.00  0.00     0.013 A
ATOM     19 C15  LIG L   1      24.784  53.281  17.493  1.00  0.00     0.111 A
ATOM     20  N4  LIG L   1      23.800  53.163  18.486  1.00  0.00    -0.263 NA
ATOM     21 C16  LIG L   1      23.171  51.956  18.776  1.00  0.00     0.120 A
ENDBRANCH   11   16
ENDBRANCH    8   10
ENDBRANCH    1    8
BRANCH    5   22
ATOM     22  N5  LIG L   1      16.829  50.525  16.146  1.00  0.00    -0.281 N
ATOM     23 C17  LIG L   1      15.699  51.307  15.976  1.00  0.00     0.248 C
ATOM     24  H2  LIG L   1      17.544  50.648  15.480  1.00  0.00     0.155 HD
ATOM     25  O1  LIG L   1      14.644  51.134  16.568  1.00  0.00    -0.270 OA
BRANCH   23   26
ATOM     26 C18  LIG L   1      15.742  52.436  14.998  1.00  0.00     0.037 A
ATOM     27 C19  LIG L   1      16.689  52.437  13.880  1.00  0.00     0.013 A
ATOM     28 C20  LIG L   1      14.836  53.551  15.174  1.00  0.00     0.013 A
ATOM     29 C21  LIG L   1      16.721  53.547  12.960  1.00  0.00     0.002 A
ATOM     30 C22  LIG L   1      14.870  54.637  14.271  1.00  0.00     0.002 A
ATOM     31 C23  LIG L   1      15.802  54.665  13.156  1.00  0.00    -0.064 A
BRANCH   31   32
ATOM     32 C24  LIG L   1      15.782  55.901  12.236  1.00  0.00    -0.043 C
BRANCH   32   33
ATOM     33  N6  LIG L   1      15.061  57.111  12.733  1.00  0.00     0.380 N
ATOM     34 C25  LIG L   1      15.983  58.306  12.755  1.00  0.00    -0.097 C
ATOM     35 C26  LIG L   1      13.816  57.422  11.897  1.00  0.00    -0.097 C
ATOM     36  H3  LIG L   1      14.753  56.908  13.684  1.00  0.00    -0.082 HD
ATOM     37 C27  LIG L   1      15.257  59.572  13.289  1.00  0.00    -0.098 C
ATOM     38 C28  LIG L   1      13.062  58.677  12.444  1.00  0.00    -0.098 C
ATOM     39  N7  LIG L   1      14.015  59.874  12.462  1.00  0.00     0.375 N
ATOM     40 C29  LIG L   1      13.293  61.069  12.922  1.00  0.00    -0.096 C
ATOM     41  H4  LIG L   1      14.350  60.061  11.517  1.00  0.00    -0.082 HD
ENDBRANCH   32   33
ENDBRANCH   31   32
ENDBRANCH   23   26
ENDBRANCH    5   22
TORSDOF 7
ENDMDL
MODEL 4
REMARK VINA RESULT:   -10.630      2.540     12.636
REMARK INTER + INTRA:         -15.406
REMARK INTER:                 -14.625
REMARK INTRA:                  -0.782
REMARK UNBOUND:                -0.427
REMARK Flexibility Score: inf
REMARK Active torsions [ 7 ] -> [ 7 ]
ROOT
ATOM      1  C1  LIG L   1      15.388  48.031  18.430  1.00  0.00     0.038 A
ATOM      2  C2  LIG L   1      14.065  47.835  19.034  1.00  0.00    -0.029 A
ATOM      3  C3  LIG L   1      13.050  48.816  18.777  1.00  0.00     0.007 A
ATOM      4  C4  LIG L   1      13.327  49.960  17.944  1.00  0.00     0.024 A
ATOM      5  C5  LIG L   1      14.609  50.151  17.352  1.00  0.00     0.035 A
ATOM      6  C6  LIG L   1      15.643  49.162  17.612  1.00  0.00     0.047 A
ATOM      7  C7  LIG L   1      13.710  46.625  19.930  1.00  0.00     0.045 C
ENDROOT
BRANCH    1    8
ATOM      8  N1  LIG L   1      16.418  47.112  18.646  1.00  0.00    -0.283 N
ATOM      9  H1  LIG L   1      16.430  46.267  18.140  1.00  0.00     0.155 HD
BRANCH    8   10
ATOM     10  C8  LIG L   1      17.422  47.377  19.564  1.00  0.00     0.220 A
ATOM     11  C9  LIG L   1      19.689  48.008  19.934  1.00  0.00     0.077 A
ATOM     12 C10  LIG L   1      19.509  47.910  21.354  1.00  0.00     0.048 A
ATOM     13  N2  LIG L   1      18.633  47.738  19.092  1.00  0.00    -0.214 NA
ATOM     14 C11  LIG L   1      18.231  47.531  21.822  1.00  0.00     0.116 A
ATOM     15  N3  LIG L   1      17.216  47.271  20.927  1.00  0.00    -0.223 NA
BRANCH   11   16
ATOM     16 C12  LIG L   1      20.982  48.394  19.287  1.00  0.00     0.019 A
ATOM     17 C13  LIG L   1      23.243  47.850  18.309  1.00  0.00     0.020 A
ATOM     18 C14  LIG L   1      22.012  47.425  18.933  1.00  0.00     0.013 A
ATOM     19 C15  LIG L   1      23.426  49.253  18.047  1.00  0.00     0.111 A
ATOM     20  N4  LIG L   1      22.428  50.177  18.390  1.00  0.00    -0.263 NA
ATOM     21 C16  LIG L   1      21.232  49.797  18.991  1.00  0.00     0.120 A
ENDBRANCH   11   16
ENDBRANCH    8   10
ENDBRANCH    1    8
BRANCH    5   22
ATOM     22  N5  LIG L   1      14.808  51.315  16.524  1.00  0.00    -0.281 N
ATOM     23 C17  LIG L   1      15.905  51.622  15.736  1.00  0.00     0.248 C
ATOM     24  H2  LIG L   1      14.074  51.971  16.518  1.00  0.00     0.155 HD
ATOM     25  O1  LIG L   1      16.979  51.042  15.790  1.00  0.00    -0.270 OA
BRANCH   23   26
ATOM     26 C18  LIG L   1      15.798  52.745  14.756  1.00  0.00     0.037 A
ATOM     27 C19  LIG L   1      16.811  52.947  13.717  1.00  0.00     0.013 A
ATOM     28 C20  LIG L   1      14.674  53.653  14.850  1.00  0.00     0.013 A
ATOM     29 C21  LIG L   1      16.693  54.048  12.795  1.00  0.00     0.002 A
ATOM     30 C22  LIG L   1      14.561  54.731  13.943  1.00  0.00     0.002 A
ATOM     31 C23  LIG L   1      15.554  54.957  12.907  1.00  0.00    -0.064 A
BRANCH   31   32
ATOM     32 C24  LIG L   1      15.358  56.171  11.979  1.00  0.00    -0.043 C
BRANCH   32   33
ATOM     33  N6  LIG L   1      14.612  57.340  12.532  1.00  0.00     0.380 N
ATOM     34 C25  LIG L   1      15.537  58.517  12.724  1.00  0.00    -0.097 C
ATOM     35 C26  LIG L   1      13.430  57.739  11.645  1.00  0.00    -0.097 C
ATOM     36  H3  LIG L   1      14.238  57.057  13.438  1.00  0.00    -0.082 HD
ATOM     37 C27  LIG L   1      14.783  59.740  13.319  1.00  0.00    -0.098 C
ATOM     38 C28  LIG L   1      12.647  58.950  12.249  1.00  0.00    -0.098 C
ATOM     39  N7  LIG L   1      13.603  60.128  12.439  1.00  0.00     0.375 N
ATOM     40 C29  LIG L   1      12.858  61.287  12.954  1.00  0.00    -0.096 C
ATOM     41  H4  LIG L   1      14.003  60.395  11.540  1.00  0.00    -0.082 HD
ENDBRANCH   32   33
ENDBRANCH   31   32
ENDBRANCH   23   26
ENDBRANCH    5   22
TORSDOF 7
ENDMDL
