MODEL 1
REMARK VINA RESULT:   -13.007      0.000      0.000
REMARK INTER + INTRA:         -19.095
REMARK INTER:                 -18.642
REMARK INTRA:                  -0.453
REMARK UNBOUND:                -0.765
REMARK Flexibility Score: inf
REMARK Active torsions [ 7 ] -> [ 7 ]
ROOT
ATOM      1  C1  LIG L   1      15.834  54.713  12.407  1.00  0.00     0.038 A
ATOM      2  C2  LIG L   1      16.913  54.551  11.425  1.00  0.00    -0.029 A
ATOM      3  C3  LIG L   1      17.890  53.525  11.654  1.00  0.00     0.007 A
ATOM      4  C4  LIG L   1      17.806  52.677  12.818  1.00  0.00     0.024 A
ATOM      5  C5  LIG L   1      16.757  52.829  13.771  1.00  0.00     0.035 A
ATOM      6  C6  LIG L   1      15.766  53.869  13.545  1.00  0.00     0.047 A
ATOM      7  C7  LIG L   1      17.048  55.426  10.157  1.00  0.00     0.045 C
ENDROOT
BRANCH    1    8
ATOM      8  N1  LIG L   1      14.855  55.695  12.240  1.00  0.00    -0.283 N
ATOM      9  H1  LIG L   1      13.979  55.450  11.863  1.00  0.00     0.155 HD
BRANCH    8   10
ATOM     10  C8  LIG L   1      15.104  57.011  12.598  1.00  0.00     0.220 A
ATOM     11  C9  LIG L   1      14.278  59.240  12.758  1.00  0.00     0.077 A
ATOM     12 C10  LIG L   1      15.534  59.693  13.282  1.00  0.00     0.048 A
ATOM     13  N2  LIG L   1      14.111  57.911  12.437  1.00  0.00    -0.214 NA
ATOM     14 C11  LIG L   1      16.556  58.731  13.442  1.00  0.00     0.116 A
ATOM     15  N3  LIG L   1      16.328  57.415  13.099  1.00  0.00    -0.223 NA
BRANCH   11   16
ATOM     16 C12  LIG L   1      13.102  60.137  12.528  1.00  0.00     0.019 A
ATOM     17 C13  LIG L   1      11.829  62.288  12.874  1.00  0.00     0.020 A
ATOM     18 C14  LIG L   1      12.986  61.460  13.128  1.00  0.00     0.013 A
ATOM     19 C15  LIG L   1      10.796  61.770  12.016  1.00  0.00     0.111 A
ATOM     20  N4  LIG L   1      10.919  60.496  11.443  1.00  0.00    -0.263 NA
ATOM     21 C16  LIG L   1      12.021  59.678  11.669  1.00  0.00     0.120 A
ENDBRANCH   11   16
ENDBRANCH    8   10
ENDBRANCH    1    8
BRANCH    5   22
ATOM     22  N5  LIG L   1      16.736  51.938  14.904  1.00  0.00    -0.281 N
ATOM     23 C17  LIG L   1      15.704  51.730  15.805  1.00  0.00     0.248 C
ATOM     24  H2  LIG L   1      17.555  51.413  15.056  1.00  0.00     0.155 HD
ATOM     25  O1  LIG L   1      14.714  52.441  15.898  1.00  0.00    -0.270 OA
BRANCH   23   26
ATOM     26 C18  LIG L   1      15.790  50.574  16.748  1.00  0.00     0.037 A
ATOM     27 C19  LIG L   1      17.047  49.849  16.949  1.00  0.00     0.013 A
ATOM     28 C20  LIG L   1      14.600  50.162  17.463  1.00  0.00     0.013 A
ATOM     29 C21  LIG L   1      17.099  48.727  17.852  1.00  0.00     0.002 A
ATOM     30 C22  LIG L   1      14.655  49.062  18.348  1.00  0.00     0.002 A
ATOM     31 C23  LIG L   1      15.888  48.323  18.562  1.00  0.00    -0.064 A
BRANCH   31   32
ATOM     32 C24  LIG L   1      15.846  47.124  19.528  1.00  0.00    -0.043 C
BRANCH   32   33
ATOM     33  N6  LIG L   1      17.116  46.762  20.224  1.00  0.00     0.380 N
ATOM     34 C25  LIG L   1      17.430  47.762  21.310  1.00  0.00    -0.097 C
ATOM     35 C26  LIG L   1      17.067  45.348  20.810  1.00  0.00    -0.097 C
ATOM     36  H3  LIG L   1      17.858  46.782  19.525  1.00  0.00    -0.082 HD
ATOM     37 C27  LIG L   1      18.761  47.414  22.033  1.00  0.00    -0.098 C
ATOM     38 C28  LIG L   1      18.413  44.977  21.515  1.00  0.00    -0.098 C
ATOM     39  N7  LIG L   1      18.713  46.005  22.607  1.00  0.00     0.375 N
ATOM     40 C29  LIG L   1      19.948  45.627  23.310  1.00  0.00    -0.096 C
ATOM     41  H4  LIG L   1      17.958  46.009  23.292  1.00  0.00    -0.082 HD
ENDBRANCH   32   33
ENDBRANCH   31   32
ENDBRANCH   23   26
ENDBRANCH    5   22
TORSDOF 7
ENDMDL
MODEL 2
REMARK VINA RESULT:   -11.055      3.013     12.405
REMARK INTER + INTRA:         -16.344
REMARK INTER:                 -15.379
REMARK INTRA:                  -0.965
REMARK UNBOUND:                -0.765
REMARK Flexibility Score: inf
REMARK Active torsions [ 7 ] -> [ 7 ]
ROOT
ATOM      1  C1  LIG L   1      16.850  48.711  17.602  1.00  0.00     0.038 A
ATOM      2  C2  LIG L   1      15.528  48.418  18.168  1.00  0.00    -0.029 A
ATOM      3  C3  LIG L   1      14.460  49.341  17.908  1.00  0.00     0.007 A
ATOM      4  C4  LIG L   1      14.685  50.521  17.110  1.00  0.00     0.024 A
ATOM      5  C5  LIG L   1      15.967  50.806  16.556  1.00  0.00     0.035 A
ATOM      6  C6  LIG L   1      17.054  49.876  16.819  1.00  0.00     0.047 A
ATOM      7  C7  LIG L   1      15.227  47.166  19.024  1.00  0.00     0.045 C
ENDROOT
BRANCH    1    8
ATOM      8  N1  LIG L   1      17.929  47.853  17.822  1.00  0.00    -0.283 N
ATOM      9  H1  LIG L   1      17.991  47.009  17.318  1.00  0.00     0.155 HD
BRANCH    8   10
ATOM     10  C8  LIG L   1      18.915  48.175  18.743  1.00  0.00     0.220 A
ATOM     11  C9  LIG L   1      20.928  49.364  19.196  1.00  0.00     0.077 A
ATOM     12 C10  LIG L   1      20.953  48.860  20.539  1.00  0.00     0.048 A
ATOM     13  N2  LIG L   1      19.905  49.002  18.349  1.00  0.00    -0.214 NA
ATOM     14 C11  LIG L   1      19.903  47.996  20.926  1.00  0.00     0.116 A
ATOM     15  N3  LIG L   1      18.909  47.669  20.030  1.00  0.00    -0.223 NA
BRANCH   11   16
ATOM     16 C12  LIG L   1      21.969  50.284  18.636  1.00  0.00     0.019 A
ATOM     17 C13  LIG L   1      24.212  50.741  17.576  1.00  0.00     0.020 A
ATOM     18 C14  LIG L   1      23.241  49.811  18.106  1.00  0.00     0.013 A
ATOM     19 C15  LIG L   1      23.890  52.144  17.589  1.00  0.00     0.111 A
ATOM     20  N4  LIG L   1      22.661  52.587  18.101  1.00  0.00    -0.263 NA
ATOM     21 C16  LIG L   1      21.707  51.715  18.615  1.00  0.00     0.120 A
ENDBRANCH   11   16
ENDBRANCH    8   10
ENDBRANCH    1    8
BRANCH    5   22
ATOM     22  N5  LIG L   1      16.112  52.001  15.761  1.00  0.00    -0.281 N
ATOM     23 C17  LIG L   1      15.640  52.233  14.480  1.00  0.00     0.248 C
ATOM     24  H2  LIG L   1      16.608  52.741  16.181  1.00  0.00     0.155 HD
ATOM     25  O1  LIG L   1      15.203  51.368  13.737  1.00  0.00    -0.270 OA
BRANCH   23   26
ATOM     26 C18  LIG L   1      15.672  53.627  13.941  1.00  0.00     0.037 A
ATOM     27 C19  LIG L   1      16.940  54.329  13.723  1.00  0.00     0.013 A
ATOM     28 C20  LIG L   1      14.422  54.292  13.643  1.00  0.00     0.013 A
ATOM     29 C21  LIG L   1      16.942  55.679  13.218  1.00  0.00     0.002 A
ATOM     30 C22  LIG L   1      14.428  55.615  13.147  1.00  0.00     0.002 A
ATOM     31 C23  LIG L   1      15.670  56.336  12.926  1.00  0.00    -0.064 A
BRANCH   31   32
ATOM     32 C24  LIG L   1      15.577  57.782  12.404  1.00  0.00    -0.043 C
BRANCH   32   33
ATOM     33  N6  LIG L   1      14.306  58.522  12.666  1.00  0.00     0.380 N
ATOM     34 C25  LIG L   1      14.597  59.906  13.194  1.00  0.00    -0.097 C
ATOM     35 C26  LIG L   1      13.425  58.610  11.417  1.00  0.00    -0.097 C
ATOM     36  H3  LIG L   1      13.792  57.996  13.372  1.00  0.00    -0.082 HD
ATOM     37 C27  LIG L   1      13.287  60.686  13.492  1.00  0.00    -0.098 C
ATOM     38 C28  LIG L   1      12.090  59.368  11.714  1.00  0.00    -0.098 C
ATOM     39  N7  LIG L   1      12.409  60.764  12.252  1.00  0.00     0.375 N
ATOM     40 C29  LIG L   1      11.156  61.500  12.478  1.00  0.00    -0.096 C
ATOM     41  H4  LIG L   1      12.950  61.284  11.560  1.00  0.00    -0.082 HD
ENDBRANCH   32   33
ENDBRANCH   31   32
ENDBRANCH   23   26
ENDBRANCH    5   22
TORSDOF 7
ENDMDL
MODEL 3
REMARK VINA RESULT:   -10.984      1.086      1.615
REMARK INTER + INTRA:         -16.244
REMARK INTER:                 -15.742
REMARK INTRA:                  -0.503
REMARK UNBOUND:                -0.765
REMARK Flexibility Score: inf
REMARK Active torsions [ 7 ] -> [ 7 ]
ROOT
ATOM      1  C1  LIG L   1      16.393  55.621  12.751  1.00  0.00     0.038 A
ATOM      2  C2  LIG L   1      17.007  55.216  11.481  1.00  0.00    -0.029 A
ATOM      3  C3  LIG L   1      17.518  53.880  11.370  1.00  0.00     0.007 A
ATOM      4  C4  LIG L   1      17.427  52.963  12.480  1.00  0.00     0.024 A
ATOM      5  C5  LIG L   1      16.828  53.352  13.713  1.00  0.00     0.035 A
ATOM      6  C6  LIG L   1      16.310  54.706  13.832  1.00  0.00     0.047 A
ATOM      7  C7  LIG L   1      17.127  56.154  10.257  1.00  0.00     0.045 C
ENDROOT
BRANCH    1    8
ATOM      8  N1  LIG L   1      15.879  56.908  12.920  1.00  0.00    -0.283 N
ATOM      9  H1  LIG L   1      16.437  57.604  13.339  1.00  0.00     0.155 HD
BRANCH    8   10
ATOM     10  C8  LIG L   1      14.593  57.218  12.506  1.00  0.00     0.220 A
ATOM     11  C9  LIG L   1      12.945  58.904  12.164  1.00  0.00     0.077 A
ATOM     12 C10  LIG L   1      12.004  57.924  11.702  1.00  0.00     0.048 A
ATOM     13  N2  LIG L   1      14.208  58.511  12.547  1.00  0.00    -0.214 NA
ATOM     14 C11  LIG L   1      12.434  56.578  11.668  1.00  0.00     0.116 A
ATOM     15  N3  LIG L   1      13.710  56.249  12.068  1.00  0.00    -0.223 NA
BRANCH   11   16
ATOM     16 C12  LIG L   1      12.640  60.367  12.261  1.00  0.00     0.019 A
ATOM     17 C13  LIG L   1      11.126  62.360  11.946  1.00  0.00     0.020 A
ATOM     18 C14  LIG L   1      11.371  60.941  11.830  1.00  0.00     0.013 A
ATOM     19 C15  LIG L   1      12.167  63.190  12.494  1.00  0.00     0.111 A
ATOM     20  N4  LIG L   1      13.383  62.625  12.907  1.00  0.00    -0.263 NA
ATOM     21 C16  LIG L   1      13.647  61.262  12.809  1.00  0.00     0.120 A
ENDBRANCH   11   16
ENDBRANCH    8   10
ENDBRANCH    1    8
BRANCH    5   22
ATOM     22  N5  LIG L   1      16.765  52.377  14.774  1.00  0.00    -0.281 N
ATOM     23 C17  LIG L   1      15.716  52.134  15.646  1.00  0.00     0.248 C
ATOM     24  H2  LIG L   1      17.565  51.815  14.892  1.00  0.00     0.155 HD
ATOM     25  O1  LIG L   1      14.749  52.868  15.785  1.00  0.00    -0.270 OA
BRANCH   23   26
ATOM     26 C18  LIG L   1      15.755  50.906  16.497  1.00  0.00     0.037 A
ATOM     27 C19  LIG L   1      17.016  50.215  16.777  1.00  0.00     0.013 A
ATOM     28 C20  LIG L   1      14.516  50.392  17.041  1.00  0.00     0.013 A
ATOM     29 C21  LIG L   1      17.023  49.023  17.588  1.00  0.00     0.002 A
ATOM     30 C22  LIG L   1      14.527  49.224  17.836  1.00  0.00     0.002 A
ATOM     31 C23  LIG L   1      15.763  48.515  18.125  1.00  0.00    -0.064 A
BRANCH   31   32
ATOM     32 C24  LIG L   1      15.673  47.238  18.982  1.00  0.00    -0.043 C
BRANCH   32   33
ATOM     33  N6  LIG L   1      16.875  46.869  19.787  1.00  0.00     0.380 N
ATOM     34 C25  LIG L   1      17.270  48.003  20.702  1.00  0.00    -0.097 C
ATOM     35 C26  LIG L   1      16.652  45.591  20.600  1.00  0.00    -0.097 C
ATOM     36  H3  LIG L   1      17.634  46.690  19.129  1.00  0.00    -0.082 HD
ATOM     37 C27  LIG L   1      18.533  47.647  21.534  1.00  0.00    -0.098 C
ATOM     38 C28  LIG L   1      17.928  45.207  21.418  1.00  0.00    -0.098 C
ATOM     39  N7  LIG L   1      18.312  46.370  22.334  1.00  0.00     0.375 N
ATOM     40 C29  LIG L   1      19.477  45.991  23.147  1.00  0.00    -0.096 C
ATOM     41  H4  LIG L   1      17.544  46.573  22.974  1.00  0.00    -0.082 HD
ENDBRANCH   32   33
ENDBRANCH   31   32
ENDBRANCH   23   26
ENDBRANCH    5   22
TORSDOF 7
ENDMDL
MODEL 4
REMARK VINA RESULT:   -10.791      3.879     12.342
REMARK INTER + INTRA:         -15.972
REMARK INTER:                 -15.107
REMARK INTRA:                  -0.865
REMARK UNBOUND:                -0.765
REMARK Flexibility Score: inf
REMARK Active torsions [ 7 ] -> [ 7 ]
ROOT
ATOM      1  C1  LIG L   1      18.369  48.587  19.032  1.00  0.00     0.038 A
ATOM      2  C2  LIG L   1      17.389  47.508  19.207  1.00  0.00    -0.029 A
ATOM      3  C3  LIG L   1      16.236  47.495  18.353  1.00  0.00     0.007 A
ATOM      4  C4  LIG L   1      16.051  48.515  17.351  1.00  0.00     0.024 A
ATOM      5  C5  LIG L   1      17.003  49.561  17.176  1.00  0.00     0.035 A
ATOM      6  C6  LIG L   1      18.173  49.581  18.040  1.00  0.00     0.047 A
ATOM      7  C7  LIG L   1      17.538  46.385  20.260  1.00  0.00     0.045 C
ENDROOT
BRANCH    1    8
ATOM      8  N1  LIG L   1      19.510  48.654  19.835  1.00  0.00    -0.283 N
ATOM      9  H1  LIG L   1      19.423  48.895  20.785  1.00  0.00     0.155 HD
BRANCH    8   10
ATOM     10  C8  LIG L   1      20.764  48.386  19.307  1.00  0.00     0.220 A
ATOM     11  C9  LIG L   1      22.791  49.253  18.405  1.00  0.00     0.077 A
ATOM     12 C10  LIG L   1      23.303  47.926  18.218  1.00  0.00     0.048 A
ATOM     13  N2  LIG L   1      21.537  49.431  18.946  1.00  0.00    -0.214 NA
ATOM     14 C11  LIG L   1      22.474  46.850  18.606  1.00  0.00     0.116 A
ATOM     15  N3  LIG L   1      21.227  47.094  19.139  1.00  0.00    -0.223 NA
BRANCH   11   16
ATOM     16 C12  LIG L   1      23.546  50.493  18.041  1.00  0.00     0.019 A
ATOM     17 C13  LIG L   1      25.088  51.813  16.543  1.00  0.00     0.020 A
ATOM     18 C14  LIG L   1      24.380  50.592  16.849  1.00  0.00     0.013 A
ATOM     19 C15  LIG L   1      24.951  52.926  17.445  1.00  0.00     0.111 A
ATOM     20  N4  LIG L   1      24.145  52.820  18.588  1.00  0.00    -0.263 NA
ATOM     21 C16  LIG L   1      23.450  51.658  18.908  1.00  0.00     0.120 A
ENDBRANCH   11   16
ENDBRANCH    8   10
ENDBRANCH    1    8
BRANCH    5   22
ATOM     22  N5  LIG L   1      16.754  50.540  16.147  1.00  0.00    -0.281 N
ATOM     23 C17  LIG L   1      15.635  51.341  15.985  1.00  0.00     0.248 C
ATOM     24  H2  LIG L   1      17.467  50.652  15.476  1.00  0.00     0.155 HD
ATOM     25  O1  LIG L   1      14.581  51.184  16.583  1.00  0.00    -0.270 OA
BRANCH   23   26
ATOM     26 C18  LIG L   1      15.691  52.470  15.008  1.00  0.00     0.037 A
ATOM     27 C19  LIG L   1      16.672  52.486  13.920  1.00  0.00     0.013 A
ATOM     28 C20  LIG L   1      14.761  53.569  15.154  1.00  0.00     0.013 A
ATOM     29 C21  LIG L   1      16.715  53.596  13.001  1.00  0.00     0.002 A
ATOM     30 C22  LIG L   1      14.805  54.655  14.251  1.00  0.00     0.002 A
ATOM     31 C23  LIG L   1      15.771  54.699  13.166  1.00  0.00    -0.064 A
BRANCH   31   32
ATOM     32 C24  LIG L   1      15.759  55.934  12.245  1.00  0.00    -0.043 C
BRANCH   32   33
ATOM     33  N6  LIG L   1      15.046  57.149  12.740  1.00  0.00     0.380 N
ATOM     34 C25  LIG L   1      15.964  58.347  12.721  1.00  0.00    -0.097 C
ATOM     35 C26  LIG L   1      13.780  57.443  11.930  1.00  0.00    -0.097 C
ATOM     36  H3  LIG L   1      14.762  56.959  13.702  1.00  0.00    -0.082 HD
ATOM     37 C27  LIG L   1      15.247  59.619  13.253  1.00  0.00    -0.098 C
ATOM     38 C28  LIG L   1      13.035  58.704  12.476  1.00  0.00    -0.098 C
ATOM     39  N7  LIG L   1      13.984  59.904  12.452  1.00  0.00     0.375 N
ATOM     40 C29  LIG L   1      13.269  61.104  12.910  1.00  0.00    -0.096 C
ATOM     41  H4  LIG L   1      14.295  60.078  11.496  1.00  0.00    -0.082 HD
ENDBRANCH   32   33
ENDBRANCH   31   32
ENDBRANCH   23   26
ENDBRANCH    5   22
TORSDOF 7
ENDMDL
