MODEL 1
REMARK VINA RESULT:   -13.316      0.000      0.000
REMARK INTER + INTRA:         -19.119
REMARK INTER:                 -18.654
REMARK INTRA:                  -0.465
REMARK UNBOUND:                -0.354
REMARK Flexibility Score: inf
REMARK Active torsions [ 7 ] -> [ 7 ]
ROOT
ATOM      1  C1  LIG L   1      15.836  54.746  12.417  1.00  0.00     0.038 A
ATOM      2  C2  LIG L   1      16.917  54.590  11.436  1.00  0.00    -0.029 A
ATOM      3  C3  LIG L   1      17.902  53.572  11.667  1.00  0.00     0.007 A
ATOM      4  C4  LIG L   1      17.826  52.727  12.833  1.00  0.00     0.024 A
ATOM      5  C5  LIG L   1      16.776  52.873  13.786  1.00  0.00     0.035 A
ATOM      6  C6  LIG L   1      15.776  53.905  13.558  1.00  0.00     0.047 A
ATOM      7  C7  LIG L   1      17.045  55.463  10.166  1.00  0.00     0.045 C
ENDROOT
BRANCH    1    8
ATOM      8  N1  LIG L   1      14.850  55.720  12.248  1.00  0.00    -0.283 N
ATOM      9  H1  LIG L   1      13.975  55.467  11.875  1.00  0.00     0.155 HD
BRANCH    8   10
ATOM     10  C8  LIG L   1      15.090  57.039  12.599  1.00  0.00     0.220 A
ATOM     11  C9  LIG L   1      14.250  59.264  12.743  1.00  0.00     0.077 A
ATOM     12 C10  LIG L   1      15.501  59.728  13.269  1.00  0.00     0.048 A
ATOM     13  N2  LIG L   1      14.093  57.932  12.429  1.00  0.00    -0.214 NA
ATOM     14 C11  LIG L   1      16.528  58.772  13.439  1.00  0.00     0.116 A
ATOM     15  N3  LIG L   1      16.309  57.454  13.103  1.00  0.00    -0.223 NA
BRANCH   11   16
ATOM     16 C12  LIG L   1      13.069  60.153  12.503  1.00  0.00     0.019 A
ATOM     17 C13  LIG L   1      11.788  62.303  12.821  1.00  0.00     0.020 A
ATOM     18 C14  LIG L   1      12.949  61.484  13.085  1.00  0.00     0.013 A
ATOM     19 C15  LIG L   1      10.756  61.769  11.973  1.00  0.00     0.111 A
ATOM     20  N4  LIG L   1      10.883  60.488  11.417  1.00  0.00    -0.263 NA
ATOM     21 C16  LIG L   1      11.989  59.677  11.652  1.00  0.00     0.120 A
ENDBRANCH   11   16
ENDBRANCH    8   10
ENDBRANCH    1    8
BRANCH    5   22
ATOM     22  N5  LIG L   1      16.761  51.985  14.921  1.00  0.00    -0.281 N
ATOM     23 C17  LIG L   1      15.717  51.739  15.797  1.00  0.00     0.248 C
ATOM     24  H2  LIG L   1      17.597  51.493  15.095  1.00  0.00     0.155 HD
ATOM     25  O1  LIG L   1      14.698  52.410  15.864  1.00  0.00    -0.270 OA
BRANCH   23   26
ATOM     26 C18  LIG L   1      15.826  50.589  16.746  1.00  0.00     0.037 A
ATOM     27 C19  LIG L   1      17.099  49.896  16.957  1.00  0.00     0.013 A
ATOM     28 C20  LIG L   1      14.643  50.153  17.457  1.00  0.00     0.013 A
ATOM     29 C21  LIG L   1      17.173  48.779  17.866  1.00  0.00     0.002 A
ATOM     30 C22  LIG L   1      14.719  49.058  18.347  1.00  0.00     0.002 A
ATOM     31 C23  LIG L   1      15.968  48.350  18.572  1.00  0.00    -0.064 A
BRANCH   31   32
ATOM     32 C24  LIG L   1      15.949  47.155  19.543  1.00  0.00    -0.043 C
BRANCH   32   33
ATOM     33  N6  LIG L   1      17.220  46.835  20.259  1.00  0.00     0.380 N
ATOM     34 C25  LIG L   1      17.476  47.836  21.359  1.00  0.00    -0.097 C
ATOM     35 C26  LIG L   1      17.216  45.414  20.830  1.00  0.00    -0.097 C
ATOM     36  H3  LIG L   1      17.973  46.891  19.573  1.00  0.00    -0.082 HD
ATOM     37 C27  LIG L   1      18.807  47.533  22.103  1.00  0.00    -0.098 C
ATOM     38 C28  LIG L   1      18.563  45.089  21.555  1.00  0.00    -0.098 C
ATOM     39  N7  LIG L   1      18.804  46.117  22.662  1.00  0.00     0.375 N
ATOM     40 C29  LIG L   1      20.040  45.780  23.384  1.00  0.00    -0.096 C
ATOM     41  H4  LIG L   1      18.037  46.085  23.334  1.00  0.00    -0.082 HD
ENDBRANCH   32   33
ENDBRANCH   31   32
ENDBRANCH   23   26
ENDBRANCH    5   22
TORSDOF 7
ENDMDL
MODEL 2
REMARK VINA RESULT:   -11.329      2.983     12.428
REMARK INTER + INTRA:         -16.319
REMARK INTER:                 -15.357
REMARK INTRA:                  -0.962
REMARK UNBOUND:                -0.354
REMARK Flexibility Score: inf
REMARK Active torsions [ 7 ] -> [ 7 ]
ROOT
ATOM      1  C1  LIG L   1      16.858  48.694  17.631  1.00  0.00     0.038 A
ATOM      2  C2  LIG L   1      15.542  48.414  18.217  1.00  0.00    -0.029 A
ATOM      3  C3  LIG L   1      14.478  49.345  17.969  1.00  0.00     0.007 A
ATOM      4  C4  LIG L   1      14.701  50.520  17.163  1.00  0.00     0.024 A
ATOM      5  C5  LIG L   1      15.978  50.793  16.590  1.00  0.00     0.035 A
ATOM      6  C6  LIG L   1      17.060  49.854  16.840  1.00  0.00     0.047 A
ATOM      7  C7  LIG L   1      15.243  47.168  19.082  1.00  0.00     0.045 C
ENDROOT
BRANCH    1    8
ATOM      8  N1  LIG L   1      17.933  47.827  17.839  1.00  0.00    -0.283 N
ATOM      9  H1  LIG L   1      17.984  46.985  17.331  1.00  0.00     0.155 HD
BRANCH    8   10
ATOM     10  C8  LIG L   1      18.929  48.139  18.752  1.00  0.00     0.220 A
ATOM     11  C9  LIG L   1      20.951  49.318  19.193  1.00  0.00     0.077 A
ATOM     12 C10  LIG L   1      20.987  48.803  20.531  1.00  0.00     0.048 A
ATOM     13  N2  LIG L   1      19.918  48.966  18.353  1.00  0.00    -0.214 NA
ATOM     14 C11  LIG L   1      19.939  47.941  20.923  1.00  0.00     0.116 A
ATOM     15  N3  LIG L   1      18.935  47.624  20.035  1.00  0.00    -0.223 NA
BRANCH   11   16
ATOM     16 C12  LIG L   1      21.989  50.239  18.630  1.00  0.00     0.019 A
ATOM     17 C13  LIG L   1      24.205  50.694  17.514  1.00  0.00     0.020 A
ATOM     18 C14  LIG L   1      23.236  49.763  18.045  1.00  0.00     0.013 A
ATOM     19 C15  LIG L   1      23.907  52.100  17.581  1.00  0.00     0.111 A
ATOM     20  N4  LIG L   1      22.703  52.547  18.145  1.00  0.00    -0.263 NA
ATOM     21 C16  LIG L   1      21.750  51.674  18.662  1.00  0.00     0.120 A
ENDBRANCH   11   16
ENDBRANCH    8   10
ENDBRANCH    1    8
BRANCH    5   22
ATOM     22  N5  LIG L   1      16.122  51.983  15.789  1.00  0.00    -0.281 N
ATOM     23 C17  LIG L   1      15.630  52.217  14.515  1.00  0.00     0.248 C
ATOM     24  H2  LIG L   1      16.632  52.719  16.198  1.00  0.00     0.155 HD
ATOM     25  O1  LIG L   1      15.171  51.353  13.783  1.00  0.00    -0.270 OA
BRANCH   23   26
ATOM     26 C18  LIG L   1      15.667  53.608  13.971  1.00  0.00     0.037 A
ATOM     27 C19  LIG L   1      16.937  54.310  13.765  1.00  0.00     0.013 A
ATOM     28 C20  LIG L   1      14.420  54.271  13.656  1.00  0.00     0.013 A
ATOM     29 C21  LIG L   1      16.943  55.658  13.255  1.00  0.00     0.002 A
ATOM     30 C22  LIG L   1      14.430  55.592  13.155  1.00  0.00     0.002 A
ATOM     31 C23  LIG L   1      15.675  56.313  12.946  1.00  0.00    -0.064 A
BRANCH   31   32
ATOM     32 C24  LIG L   1      15.586  57.757  12.417  1.00  0.00    -0.043 C
BRANCH   32   33
ATOM     33  N6  LIG L   1      14.312  58.497  12.661  1.00  0.00     0.380 N
ATOM     34 C25  LIG L   1      14.595  59.889  13.171  1.00  0.00    -0.097 C
ATOM     35 C26  LIG L   1      13.438  58.565  11.405  1.00  0.00    -0.097 C
ATOM     36  H3  LIG L   1      13.794  57.979  13.371  1.00  0.00    -0.082 HD
ATOM     37 C27  LIG L   1      13.281  60.669  13.450  1.00  0.00    -0.098 C
ATOM     38 C28  LIG L   1      12.099  59.323  11.683  1.00  0.00    -0.098 C
ATOM     39  N7  LIG L   1      12.410  60.727  12.203  1.00  0.00     0.375 N
ATOM     40 C29  LIG L   1      11.154  61.463  12.411  1.00  0.00    -0.096 C
ATOM     41  H4  LIG L   1      12.954  61.239  11.508  1.00  0.00    -0.082 HD
ENDBRANCH   32   33
ENDBRANCH   31   32
ENDBRANCH   23   26
ENDBRANCH    5   22
TORSDOF 7
ENDMDL
MODEL 3
REMARK VINA RESULT:   -11.125      3.879     12.293
REMARK INTER + INTRA:         -16.032
REMARK INTER:                 -15.161
REMARK INTRA:                  -0.870
REMARK UNBOUND:                -0.354
REMARK Flexibility Score: inf
REMARK Active torsions [ 7 ] -> [ 7 ]
ROOT
ATOM      1  C1  LIG L   1      18.485  48.557  19.034  1.00  0.00     0.038 A
ATOM      2  C2  LIG L   1      17.521  47.466  19.220  1.00  0.00    -0.029 A
ATOM      3  C3  LIG L   1      16.361  47.435  18.377  1.00  0.00     0.007 A
ATOM      4  C4  LIG L   1      16.153  48.451  17.375  1.00  0.00     0.024 A
ATOM      5  C5  LIG L   1      17.089  49.510  17.189  1.00  0.00     0.035 A
ATOM      6  C6  LIG L   1      18.266  49.548  18.043  1.00  0.00     0.047 A
ATOM      7  C7  LIG L   1      17.696  46.347  20.274  1.00  0.00     0.045 C
ENDROOT
BRANCH    1    8
ATOM      8  N1  LIG L   1      19.632  48.642  19.826  1.00  0.00    -0.283 N
ATOM      9  H1  LIG L   1      19.548  48.851  20.785  1.00  0.00     0.155 HD
BRANCH    8   10
ATOM     10  C8  LIG L   1      20.889  48.436  19.278  1.00  0.00     0.220 A
ATOM     11  C9  LIG L   1      22.866  49.404  18.368  1.00  0.00     0.077 A
ATOM     12 C10  LIG L   1      23.429  48.103  18.147  1.00  0.00     0.048 A
ATOM     13  N2  LIG L   1      21.614  49.519  18.929  1.00  0.00    -0.214 NA
ATOM     14 C11  LIG L   1      22.650  46.986  18.522  1.00  0.00     0.116 A
ATOM     15  N3  LIG L   1      21.402  47.168  19.076  1.00  0.00    -0.223 NA
BRANCH   11   16
ATOM     16 C12  LIG L   1      23.566  50.681  18.021  1.00  0.00     0.019 A
ATOM     17 C13  LIG L   1      25.199  52.036  16.657  1.00  0.00     0.020 A
ATOM     18 C14  LIG L   1      24.552  50.778  16.952  1.00  0.00     0.013 A
ATOM     19 C15  LIG L   1      24.845  53.187  17.446  1.00  0.00     0.111 A
ATOM     20  N4  LIG L   1      23.893  53.081  18.471  1.00  0.00    -0.263 NA
ATOM     21 C16  LIG L   1      23.253  51.884  18.777  1.00  0.00     0.120 A
ENDBRANCH   11   16
ENDBRANCH    8   10
ENDBRANCH    1    8
BRANCH    5   22
ATOM     22  N5  LIG L   1      16.817  50.483  16.161  1.00  0.00    -0.281 N
ATOM     23 C17  LIG L   1      15.696  51.285  16.021  1.00  0.00     0.248 C
ATOM     24  H2  LIG L   1      17.514  50.591  15.473  1.00  0.00     0.155 HD
ATOM     25  O1  LIG L   1      14.656  51.133  16.644  1.00  0.00    -0.270 OA
BRANCH   23   26
ATOM     26 C18  LIG L   1      15.730  52.409  15.037  1.00  0.00     0.037 A
ATOM     27 C19  LIG L   1      16.716  52.441  13.954  1.00  0.00     0.013 A
ATOM     28 C20  LIG L   1      14.773  53.486  15.170  1.00  0.00     0.013 A
ATOM     29 C21  LIG L   1      16.738  53.546  13.028  1.00  0.00     0.002 A
ATOM     30 C22  LIG L   1      14.796  54.567  14.260  1.00  0.00     0.002 A
ATOM     31 C23  LIG L   1      15.767  54.627  13.180  1.00  0.00    -0.064 A
BRANCH   31   32
ATOM     32 C24  LIG L   1      15.731  55.855  12.251  1.00  0.00    -0.043 C
BRANCH   32   33
ATOM     33  N6  LIG L   1      15.024  57.071  12.753  1.00  0.00     0.380 N
ATOM     34 C25  LIG L   1      15.951  58.262  12.752  1.00  0.00    -0.097 C
ATOM     35 C26  LIG L   1      13.766  57.382  11.938  1.00  0.00    -0.097 C
ATOM     36  H3  LIG L   1      14.732  56.875  13.711  1.00  0.00    -0.082 HD
ATOM     37 C27  LIG L   1      15.240  59.535  13.291  1.00  0.00    -0.098 C
ATOM     38 C28  LIG L   1      13.027  58.644  12.490  1.00  0.00    -0.098 C
ATOM     39  N7  LIG L   1      13.985  59.837  12.484  1.00  0.00     0.375 N
ATOM     40 C29  LIG L   1      13.277  61.038  12.948  1.00  0.00    -0.096 C
ATOM     41  H4  LIG L   1      14.304  60.017  11.532  1.00  0.00    -0.082 HD
ENDBRANCH   32   33
ENDBRANCH   31   32
ENDBRANCH   23   26
ENDBRANCH    5   22
TORSDOF 7
ENDMDL
MODEL 4
REMARK VINA RESULT:   -10.706      1.573     13.554
REMARK INTER + INTRA:         -15.441
REMARK INTER:                 -14.495
REMARK INTRA:                  -0.946
REMARK UNBOUND:                -0.354
REMARK Flexibility Score: inf
REMARK Active torsions [ 7 ] -> [ 7 ]
ROOT
ATOM      1  C1  LIG L   1      16.978  48.654  17.495  1.00  0.00     0.038 A
ATOM      2  C2  LIG L   1      15.694  48.401  18.159  1.00  0.00    -0.029 A
ATOM      3  C3  LIG L   1      14.640  49.359  17.984  1.00  0.00     0.007 A
ATOM      4  C4  LIG L   1      14.842  50.535  17.175  1.00  0.00     0.024 A
ATOM      5  C5  LIG L   1      16.087  50.782  16.526  1.00  0.00     0.035 A
ATOM      6  C6  LIG L   1      17.160  49.815  16.702  1.00  0.00     0.047 A
ATOM      7  C7  LIG L   1      15.418  47.155  19.033  1.00  0.00     0.045 C
ENDROOT
BRANCH    1    8
ATOM      8  N1  LIG L   1      18.042  47.759  17.631  1.00  0.00    -0.283 N
ATOM      9  H1  LIG L   1      18.174  47.054  16.956  1.00  0.00     0.155 HD
BRANCH    8   10
ATOM     10  C8  LIG L   1      18.915  47.854  18.703  1.00  0.00     0.220 A
ATOM     11  C9  LIG L   1      19.635  46.961  20.792  1.00  0.00     0.077 A
ATOM     12 C10  LIG L   1      20.631  47.986  20.914  1.00  0.00     0.048 A
ATOM     13  N2  LIG L   1      18.814  46.934  19.686  1.00  0.00    -0.214 NA
ATOM     14 C11  LIG L   1      20.717  48.935  19.870  1.00  0.00     0.116 A
ATOM     15  N3  LIG L   1      19.864  48.856  18.791  1.00  0.00    -0.223 NA
BRANCH   11   16
ATOM     16 C12  LIG L   1      19.419  45.888  21.813  1.00  0.00     0.019 A
ATOM     17 C13  LIG L   1      19.899  44.780  24.028  1.00  0.00     0.020 A
ATOM     18 C14  LIG L   1      20.146  45.838  23.075  1.00  0.00     0.013 A
ATOM     19 C15  LIG L   1      18.920  43.779  23.697  1.00  0.00     0.111 A
ATOM     20  N4  LIG L   1      18.225  43.838  22.480  1.00  0.00    -0.263 NA
ATOM     21 C16  LIG L   1      18.440  44.845  21.544  1.00  0.00     0.120 A
ENDBRANCH   11   16
ENDBRANCH    8   10
ENDBRANCH    1    8
BRANCH    5   22
ATOM     22  N5  LIG L   1      16.211  51.975  15.726  1.00  0.00    -0.281 N
ATOM     23 C17  LIG L   1      15.664  52.224  14.478  1.00  0.00     0.248 C
ATOM     24  H2  LIG L   1      16.750  52.701  16.114  1.00  0.00     0.155 HD
ATOM     25  O1  LIG L   1      15.159  51.372  13.762  1.00  0.00    -0.270 OA
BRANCH   23   26
ATOM     26 C18  LIG L   1      15.696  53.618  13.940  1.00  0.00     0.037 A
ATOM     27 C19  LIG L   1      16.964  54.308  13.691  1.00  0.00     0.013 A
ATOM     28 C20  LIG L   1      14.445  54.295  13.675  1.00  0.00     0.013 A
ATOM     29 C21  LIG L   1      16.966  55.659  13.188  1.00  0.00     0.002 A
ATOM     30 C22  LIG L   1      14.451  55.619  13.181  1.00  0.00     0.002 A
ATOM     31 C23  LIG L   1      15.694  56.329  12.930  1.00  0.00    -0.064 A
BRANCH   31   32
ATOM     32 C24  LIG L   1      15.601  57.777  12.414  1.00  0.00    -0.043 C
BRANCH   32   33
ATOM     33  N6  LIG L   1      14.323  58.509  12.659  1.00  0.00     0.380 N
ATOM     34 C25  LIG L   1      14.597  59.877  13.235  1.00  0.00    -0.097 C
ATOM     35 C26  LIG L   1      13.479  58.634  11.387  1.00  0.00    -0.097 C
ATOM     36  H3  LIG L   1      13.788  57.962  13.333  1.00  0.00    -0.082 HD
ATOM     37 C27  LIG L   1      13.278  60.649  13.517  1.00  0.00    -0.098 C
ATOM     38 C28  LIG L   1      12.136  59.383  11.666  1.00  0.00    -0.098 C
ATOM     39  N7  LIG L   1      12.437  60.763  12.253  1.00  0.00     0.375 N
ATOM     40 C29  LIG L   1      11.178  61.492  12.463  1.00  0.00    -0.096 C
ATOM     41  H4  LIG L   1      12.998  61.302  11.593  1.00  0.00    -0.082 HD
ENDBRANCH   32   33
ENDBRANCH   31   32
ENDBRANCH   23   26
ENDBRANCH    5   22
TORSDOF 7
ENDMDL
MODEL 5
REMARK VINA RESULT:   -10.675      2.533     12.658
REMARK INTER + INTRA:         -15.397
REMARK INTER:                 -14.621
REMARK INTRA:                  -0.777
REMARK UNBOUND:                -0.354
REMARK Flexibility Score: inf
REMARK Active torsions [ 7 ] -> [ 7 ]
ROOT
ATOM      1  C1  LIG L   1      15.383  48.027  18.417  1.00  0.00     0.038 A
ATOM      2  C2  LIG L   1      14.064  47.839  19.033  1.00  0.00    -0.029 A
ATOM      3  C3  LIG L   1      13.054  48.828  18.788  1.00  0.00     0.007 A
ATOM      4  C4  LIG L   1      13.332  49.973  17.957  1.00  0.00     0.024 A
ATOM      5  C5  LIG L   1      14.610  50.157  17.354  1.00  0.00     0.035 A
ATOM      6  C6  LIG L   1      15.639  49.158  17.601  1.00  0.00     0.047 A
ATOM      7  C7  LIG L   1      13.708  46.629  19.928  1.00  0.00     0.045 C
ENDROOT
BRANCH    1    8
ATOM      8  N1  LIG L   1      16.407  47.100  18.620  1.00  0.00    -0.283 N
ATOM      9  H1  LIG L   1      16.415  46.262  18.103  1.00  0.00     0.155 HD
BRANCH    8   10
ATOM     10  C8  LIG L   1      17.413  47.346  19.542  1.00  0.00     0.220 A
ATOM     11  C9  LIG L   1      19.684  47.959  19.920  1.00  0.00     0.077 A
ATOM     12 C10  LIG L   1      19.504  47.844  21.338  1.00  0.00     0.048 A
ATOM     13  N2  LIG L   1      18.627  47.706  19.074  1.00  0.00    -0.214 NA
ATOM     14 C11  LIG L   1      18.223  47.467  21.801  1.00  0.00     0.116 A
ATOM     15  N3  LIG L   1      17.206  47.225  20.903  1.00  0.00    -0.223 NA
BRANCH   11   16
ATOM     16 C12  LIG L   1      20.980  48.344  19.277  1.00  0.00     0.019 A
ATOM     17 C13  LIG L   1      23.245  47.800  18.308  1.00  0.00     0.020 A
ATOM     18 C14  LIG L   1      22.011  47.375  18.928  1.00  0.00     0.013 A
ATOM     19 C15  LIG L   1      23.429  49.203  18.047  1.00  0.00     0.111 A
ATOM     20  N4  LIG L   1      22.429  50.127  18.385  1.00  0.00    -0.263 NA
ATOM     21 C16  LIG L   1      21.230  49.747  18.982  1.00  0.00     0.120 A
ENDBRANCH   11   16
ENDBRANCH    8   10
ENDBRANCH    1    8
BRANCH    5   22
ATOM     22  N5  LIG L   1      14.810  51.321  16.527  1.00  0.00    -0.281 N
ATOM     23 C17  LIG L   1      15.899  51.621  15.726  1.00  0.00     0.248 C
ATOM     24  H2  LIG L   1      14.082  51.985  16.534  1.00  0.00     0.155 HD
ATOM     25  O1  LIG L   1      16.968  51.030  15.764  1.00  0.00    -0.270 OA
BRANCH   23   26
ATOM     26 C18  LIG L   1      15.791  52.749  14.752  1.00  0.00     0.037 A
ATOM     27 C19  LIG L   1      16.783  52.934  13.690  1.00  0.00     0.013 A
ATOM     28 C20  LIG L   1      14.688  53.678  14.875  1.00  0.00     0.013 A
ATOM     29 C21  LIG L   1      16.664  54.040  12.774  1.00  0.00     0.002 A
ATOM     30 C22  LIG L   1      14.574  54.761  13.975  1.00  0.00     0.002 A
ATOM     31 C23  LIG L   1      15.547  54.971  12.916  1.00  0.00    -0.064 A
BRANCH   31   32
ATOM     32 C24  LIG L   1      15.353  56.191  11.996  1.00  0.00    -0.043 C
BRANCH   32   33
ATOM     33  N6  LIG L   1      14.615  57.361  12.560  1.00  0.00     0.380 N
ATOM     34 C25  LIG L   1      15.526  58.559  12.671  1.00  0.00    -0.097 C
ATOM     35 C26  LIG L   1      13.379  57.715  11.728  1.00  0.00    -0.097 C
ATOM     36  H3  LIG L   1      14.296  57.094  13.491  1.00  0.00    -0.082 HD
ATOM     37 C27  LIG L   1      14.782  59.783  13.275  1.00  0.00    -0.098 C
ATOM     38 C28  LIG L   1      12.607  58.927  12.344  1.00  0.00    -0.098 C
ATOM     39  N7  LIG L   1      13.549  60.127  12.452  1.00  0.00     0.375 N
ATOM     40 C29  LIG L   1      12.811  61.285  12.977  1.00  0.00    -0.096 C
ATOM     41  H4  LIG L   1      13.894  60.378  11.526  1.00  0.00    -0.082 HD
ENDBRANCH   32   33
ENDBRANCH   31   32
ENDBRANCH   23   26
ENDBRANCH    5   22
TORSDOF 7
ENDMDL
